# generated using pymatgen
data_Na4Si3
_symmetry_space_group_name_H-M   'P 1'
_cell_length_a   36.39685173
_cell_length_b   36.39685173
_cell_length_c   36.39685173
_cell_angle_alpha   60.63421788
_cell_angle_beta   60.63421788
_cell_angle_gamma   60.63421788
_symmetry_Int_Tables_number   1
_chemical_formula_structural   Na4Si3
_chemical_formula_sum   'Na512 Si384'
_cell_volume   34582.12857946
_cell_formula_units_Z   128
loop_
 _symmetry_equiv_pos_site_id
 _symmetry_equiv_pos_as_xyz
  1  'x, y, z'
loop_
 _atom_type_symbol
 _atom_type_oxidation_number
  Na+  1.0
  Si4+  4.0
loop_
 _atom_site_type_symbol
 _atom_site_label
 _atom_site_symmetry_multiplicity
 _atom_site_fract_x
 _atom_site_fract_y
 _atom_site_fract_z
 _atom_site_occupancy
  Na+  Na0  1  0.12500000  0.12500000  0.12500000  1.0
  Na+  Na1  1  0.12500000  0.12500000  0.37500000  1.0
  Na+  Na2  1  0.12500000  0.12500000  0.62500000  1.0
  Na+  Na3  1  0.12500000  0.12500000  0.87500000  1.0
  Na+  Na4  1  0.12500000  0.37500000  0.12500000  1.0
  Na+  Na5  1  0.12500000  0.37500000  0.37500000  1.0
  Na+  Na6  1  0.12500000  0.37500000  0.62500000  1.0
  Na+  Na7  1  0.12500000  0.37500000  0.87500000  1.0
  Na+  Na8  1  0.12500000  0.62500000  0.12500000  1.0
  Na+  Na9  1  0.12500000  0.62500000  0.37500000  1.0
  Na+  Na10  1  0.12500000  0.62500000  0.62500000  1.0
  Na+  Na11  1  0.12500000  0.62500000  0.87500000  1.0
  Na+  Na12  1  0.12500000  0.87500000  0.12500000  1.0
  Na+  Na13  1  0.12500000  0.87500000  0.37500000  1.0
  Na+  Na14  1  0.12500000  0.87500000  0.62500000  1.0
  Na+  Na15  1  0.12500000  0.87500000  0.87500000  1.0
  Na+  Na16  1  0.37500000  0.12500000  0.12500000  1.0
  Na+  Na17  1  0.37500000  0.12500000  0.37500000  1.0
  Na+  Na18  1  0.37500000  0.12500000  0.62500000  1.0
  Na+  Na19  1  0.37500000  0.12500000  0.87500000  1.0
  Na+  Na20  1  0.37500000  0.37500000  0.12500000  1.0
  Na+  Na21  1  0.37500000  0.37500000  0.37500000  1.0
  Na+  Na22  1  0.37500000  0.37500000  0.62500000  1.0
  Na+  Na23  1  0.37500000  0.37500000  0.87500000  1.0
  Na+  Na24  1  0.37500000  0.62500000  0.12500000  1.0
  Na+  Na25  1  0.37500000  0.62500000  0.37500000  1.0
  Na+  Na26  1  0.37500000  0.62500000  0.62500000  1.0
  Na+  Na27  1  0.37500000  0.62500000  0.87500000  1.0
  Na+  Na28  1  0.37500000  0.87500000  0.12500000  1.0
  Na+  Na29  1  0.37500000  0.87500000  0.37500000  1.0
  Na+  Na30  1  0.37500000  0.87500000  0.62500000  1.0
  Na+  Na31  1  0.37500000  0.87500000  0.87500000  1.0
  Na+  Na32  1  0.62500000  0.12500000  0.12500000  1.0
  Na+  Na33  1  0.62500000  0.12500000  0.37500000  1.0
  Na+  Na34  1  0.62500000  0.12500000  0.62500000  1.0
  Na+  Na35  1  0.62500000  0.12500000  0.87500000  1.0
  Na+  Na36  1  0.62500000  0.37500000  0.12500000  1.0
  Na+  Na37  1  0.62500000  0.37500000  0.37500000  1.0
  Na+  Na38  1  0.62500000  0.37500000  0.62500000  1.0
  Na+  Na39  1  0.62500000  0.37500000  0.87500000  1.0
  Na+  Na40  1  0.62500000  0.62500000  0.12500000  1.0
  Na+  Na41  1  0.62500000  0.62500000  0.37500000  1.0
  Na+  Na42  1  0.62500000  0.62500000  0.62500000  1.0
  Na+  Na43  1  0.62500000  0.62500000  0.87500000  1.0
  Na+  Na44  1  0.62500000  0.87500000  0.12500000  1.0
  Na+  Na45  1  0.62500000  0.87500000  0.37500000  1.0
  Na+  Na46  1  0.62500000  0.87500000  0.62500000  1.0
  Na+  Na47  1  0.62500000  0.87500000  0.87500000  1.0
  Na+  Na48  1  0.87500000  0.12500000  0.12500000  1.0
  Na+  Na49  1  0.87500000  0.12500000  0.37500000  1.0
  Na+  Na50  1  0.87500000  0.12500000  0.62500000  1.0
  Na+  Na51  1  0.87500000  0.12500000  0.87500000  1.0
  Na+  Na52  1  0.87500000  0.37500000  0.12500000  1.0
  Na+  Na53  1  0.87500000  0.37500000  0.37500000  1.0
  Na+  Na54  1  0.87500000  0.37500000  0.62500000  1.0
  Na+  Na55  1  0.87500000  0.37500000  0.87500000  1.0
  Na+  Na56  1  0.87500000  0.62500000  0.12500000  1.0
  Na+  Na57  1  0.87500000  0.62500000  0.37500000  1.0
  Na+  Na58  1  0.87500000  0.62500000  0.62500000  1.0
  Na+  Na59  1  0.87500000  0.62500000  0.87500000  1.0
  Na+  Na60  1  0.87500000  0.87500000  0.12500000  1.0
  Na+  Na61  1  0.87500000  0.87500000  0.37500000  1.0
  Na+  Na62  1  0.87500000  0.87500000  0.62500000  1.0
  Na+  Na63  1  0.87500000  0.87500000  0.87500000  1.0
  Na+  Na64  1  0.00000000  0.00000000  0.00000000  1.0
  Na+  Na65  1  0.00000000  0.00000000  0.25000000  1.0
  Na+  Na66  1  0.00000000  0.00000000  0.50000000  1.0
  Na+  Na67  1  0.00000000  0.00000000  0.75000000  1.0
  Na+  Na68  1  0.00000000  0.25000000  0.00000000  1.0
  Na+  Na69  1  0.00000000  0.25000000  0.25000000  1.0
  Na+  Na70  1  0.00000000  0.25000000  0.50000000  1.0
  Na+  Na71  1  0.00000000  0.25000000  0.75000000  1.0
  Na+  Na72  1  0.00000000  0.50000000  0.00000000  1.0
  Na+  Na73  1  0.00000000  0.50000000  0.25000000  1.0
  Na+  Na74  1  0.00000000  0.50000000  0.50000000  1.0
  Na+  Na75  1  0.00000000  0.50000000  0.75000000  1.0
  Na+  Na76  1  0.00000000  0.75000000  0.00000000  1.0
  Na+  Na77  1  0.00000000  0.75000000  0.25000000  1.0
  Na+  Na78  1  0.00000000  0.75000000  0.50000000  1.0
  Na+  Na79  1  1.00000000  0.75000000  0.75000000  1.0
  Na+  Na80  1  0.25000000  0.00000000  0.00000000  1.0
  Na+  Na81  1  0.25000000  0.00000000  0.25000000  1.0
  Na+  Na82  1  0.25000000  0.00000000  0.50000000  1.0
  Na+  Na83  1  0.25000000  0.00000000  0.75000000  1.0
  Na+  Na84  1  0.25000000  0.25000000  0.00000000  1.0
  Na+  Na85  1  0.25000000  0.25000000  0.25000000  1.0
  Na+  Na86  1  0.25000000  0.25000000  0.50000000  1.0
  Na+  Na87  1  0.25000000  0.25000000  0.75000000  1.0
  Na+  Na88  1  0.25000000  0.50000000  0.00000000  1.0
  Na+  Na89  1  0.25000000  0.50000000  0.25000000  1.0
  Na+  Na90  1  0.25000000  0.50000000  0.50000000  1.0
  Na+  Na91  1  0.25000000  0.50000000  0.75000000  1.0
  Na+  Na92  1  0.25000000  0.75000000  0.00000000  1.0
  Na+  Na93  1  0.25000000  0.75000000  0.25000000  1.0
  Na+  Na94  1  0.25000000  0.75000000  0.50000000  1.0
  Na+  Na95  1  0.25000000  0.75000000  0.75000000  1.0
  Na+  Na96  1  0.50000000  0.00000000  0.00000000  1.0
  Na+  Na97  1  0.50000000  0.00000000  0.25000000  1.0
  Na+  Na98  1  0.50000000  0.00000000  0.50000000  1.0
  Na+  Na99  1  0.50000000  0.00000000  0.75000000  1.0
  Na+  Na100  1  0.50000000  0.25000000  0.00000000  1.0
  Na+  Na101  1  0.50000000  0.25000000  0.25000000  1.0
  Na+  Na102  1  0.50000000  0.25000000  0.50000000  1.0
  Na+  Na103  1  0.50000000  0.25000000  0.75000000  1.0
  Na+  Na104  1  0.50000000  0.50000000  0.00000000  1.0
  Na+  Na105  1  0.50000000  0.50000000  0.25000000  1.0
  Na+  Na106  1  0.50000000  0.50000000  0.50000000  1.0
  Na+  Na107  1  0.50000000  0.50000000  0.75000000  1.0
  Na+  Na108  1  0.50000000  0.75000000  1.00000000  1.0
  Na+  Na109  1  0.50000000  0.75000000  0.25000000  1.0
  Na+  Na110  1  0.50000000  0.75000000  0.50000000  1.0
  Na+  Na111  1  0.50000000  0.75000000  0.75000000  1.0
  Na+  Na112  1  0.75000000  0.00000000  0.00000000  1.0
  Na+  Na113  1  0.75000000  0.00000000  0.25000000  1.0
  Na+  Na114  1  0.75000000  1.00000000  0.50000000  1.0
  Na+  Na115  1  0.75000000  1.00000000  0.75000000  1.0
  Na+  Na116  1  0.75000000  0.25000000  0.00000000  1.0
  Na+  Na117  1  0.75000000  0.25000000  0.25000000  1.0
  Na+  Na118  1  0.75000000  0.25000000  0.50000000  1.0
  Na+  Na119  1  0.75000000  0.25000000  0.75000000  1.0
  Na+  Na120  1  0.75000000  0.50000000  1.00000000  1.0
  Na+  Na121  1  0.75000000  0.50000000  0.25000000  1.0
  Na+  Na122  1  0.75000000  0.50000000  0.50000000  1.0
  Na+  Na123  1  0.75000000  0.50000000  0.75000000  1.0
  Na+  Na124  1  0.75000000  0.75000000  0.00000000  1.0
  Na+  Na125  1  0.75000000  0.75000000  0.25000000  1.0
  Na+  Na126  1  0.75000000  0.75000000  0.50000000  1.0
  Na+  Na127  1  0.75000000  0.75000000  0.75000000  1.0
  Na+  Na128  1  0.22241750  0.15258250  0.06250000  1.0
  Na+  Na129  1  0.22241750  0.15258250  0.31250000  1.0
  Na+  Na130  1  0.22241750  0.15258250  0.56250000  1.0
  Na+  Na131  1  0.22241750  0.15258250  0.81250000  1.0
  Na+  Na132  1  0.22241750  0.40258250  0.06250000  1.0
  Na+  Na133  1  0.22241750  0.40258250  0.31250000  1.0
  Na+  Na134  1  0.22241750  0.40258250  0.56250000  1.0
  Na+  Na135  1  0.22241750  0.40258250  0.81250000  1.0
  Na+  Na136  1  0.22241750  0.65258250  0.06250000  1.0
  Na+  Na137  1  0.22241750  0.65258250  0.31250000  1.0
  Na+  Na138  1  0.22241750  0.65258250  0.56250000  1.0
  Na+  Na139  1  0.22241750  0.65258250  0.81250000  1.0
  Na+  Na140  1  0.22241750  0.90258250  0.06250000  1.0
  Na+  Na141  1  0.22241750  0.90258250  0.31250000  1.0
  Na+  Na142  1  0.22241750  0.90258250  0.56250000  1.0
  Na+  Na143  1  0.22241750  0.90258250  0.81250000  1.0
  Na+  Na144  1  0.47241750  0.15258250  0.06250000  1.0
  Na+  Na145  1  0.47241750  0.15258250  0.31250000  1.0
  Na+  Na146  1  0.47241750  0.15258250  0.56250000  1.0
  Na+  Na147  1  0.47241750  0.15258250  0.81250000  1.0
  Na+  Na148  1  0.47241750  0.40258250  0.06250000  1.0
  Na+  Na149  1  0.47241750  0.40258250  0.31250000  1.0
  Na+  Na150  1  0.47241750  0.40258250  0.56250000  1.0
  Na+  Na151  1  0.47241750  0.40258250  0.81250000  1.0
  Na+  Na152  1  0.47241750  0.65258250  0.06250000  1.0
  Na+  Na153  1  0.47241750  0.65258250  0.31250000  1.0
  Na+  Na154  1  0.47241750  0.65258250  0.56250000  1.0
  Na+  Na155  1  0.47241750  0.65258250  0.81250000  1.0
  Na+  Na156  1  0.47241750  0.90258250  0.06250000  1.0
  Na+  Na157  1  0.47241750  0.90258250  0.31250000  1.0
  Na+  Na158  1  0.47241750  0.90258250  0.56250000  1.0
  Na+  Na159  1  0.47241750  0.90258250  0.81250000  1.0
  Na+  Na160  1  0.72241750  0.15258250  0.06250000  1.0
  Na+  Na161  1  0.72241750  0.15258250  0.31250000  1.0
  Na+  Na162  1  0.72241750  0.15258250  0.56250000  1.0
  Na+  Na163  1  0.72241750  0.15258250  0.81250000  1.0
  Na+  Na164  1  0.72241750  0.40258250  0.06250000  1.0
  Na+  Na165  1  0.72241750  0.40258250  0.31250000  1.0
  Na+  Na166  1  0.72241750  0.40258250  0.56250000  1.0
  Na+  Na167  1  0.72241750  0.40258250  0.81250000  1.0
  Na+  Na168  1  0.72241750  0.65258250  0.06250000  1.0
  Na+  Na169  1  0.72241750  0.65258250  0.31250000  1.0
  Na+  Na170  1  0.72241750  0.65258250  0.56250000  1.0
  Na+  Na171  1  0.72241750  0.65258250  0.81250000  1.0
  Na+  Na172  1  0.72241750  0.90258250  0.06250000  1.0
  Na+  Na173  1  0.72241750  0.90258250  0.31250000  1.0
  Na+  Na174  1  0.72241750  0.90258250  0.56250000  1.0
  Na+  Na175  1  0.72241750  0.90258250  0.81250000  1.0
  Na+  Na176  1  0.97241750  0.15258250  0.06250000  1.0
  Na+  Na177  1  0.97241750  0.15258250  0.31250000  1.0
  Na+  Na178  1  0.97241750  0.15258250  0.56250000  1.0
  Na+  Na179  1  0.97241750  0.15258250  0.81250000  1.0
  Na+  Na180  1  0.97241750  0.40258250  0.06250000  1.0
  Na+  Na181  1  0.97241750  0.40258250  0.31250000  1.0
  Na+  Na182  1  0.97241750  0.40258250  0.56250000  1.0
  Na+  Na183  1  0.97241750  0.40258250  0.81250000  1.0
  Na+  Na184  1  0.97241750  0.65258250  0.06250000  1.0
  Na+  Na185  1  0.97241750  0.65258250  0.31250000  1.0
  Na+  Na186  1  0.97241750  0.65258250  0.56250000  1.0
  Na+  Na187  1  0.97241750  0.65258250  0.81250000  1.0
  Na+  Na188  1  0.97241750  0.90258250  0.06250000  1.0
  Na+  Na189  1  0.97241750  0.90258250  0.31250000  1.0
  Na+  Na190  1  0.97241750  0.90258250  0.56250000  1.0
  Na+  Na191  1  0.97241750  0.90258250  0.81250000  1.0
  Na+  Na192  1  0.15258250  0.06250000  0.22241750  1.0
  Na+  Na193  1  0.15258250  0.06250000  0.47241750  1.0
  Na+  Na194  1  0.15258250  0.06250000  0.72241750  1.0
  Na+  Na195  1  0.15258250  0.06250000  0.97241750  1.0
  Na+  Na196  1  0.15258250  0.31250000  0.22241750  1.0
  Na+  Na197  1  0.15258250  0.31250000  0.47241750  1.0
  Na+  Na198  1  0.15258250  0.31250000  0.72241750  1.0
  Na+  Na199  1  0.15258250  0.31250000  0.97241750  1.0
  Na+  Na200  1  0.15258250  0.56250000  0.22241750  1.0
  Na+  Na201  1  0.15258250  0.56250000  0.47241750  1.0
  Na+  Na202  1  0.15258250  0.56250000  0.72241750  1.0
  Na+  Na203  1  0.15258250  0.56250000  0.97241750  1.0
  Na+  Na204  1  0.15258250  0.81250000  0.22241750  1.0
  Na+  Na205  1  0.15258250  0.81250000  0.47241750  1.0
  Na+  Na206  1  0.15258250  0.81250000  0.72241750  1.0
  Na+  Na207  1  0.15258250  0.81250000  0.97241750  1.0
  Na+  Na208  1  0.40258250  0.06250000  0.22241750  1.0
  Na+  Na209  1  0.40258250  0.06250000  0.47241750  1.0
  Na+  Na210  1  0.40258250  0.06250000  0.72241750  1.0
  Na+  Na211  1  0.40258250  0.06250000  0.97241750  1.0
  Na+  Na212  1  0.40258250  0.31250000  0.22241750  1.0
  Na+  Na213  1  0.40258250  0.31250000  0.47241750  1.0
  Na+  Na214  1  0.40258250  0.31250000  0.72241750  1.0
  Na+  Na215  1  0.40258250  0.31250000  0.97241750  1.0
  Na+  Na216  1  0.40258250  0.56250000  0.22241750  1.0
  Na+  Na217  1  0.40258250  0.56250000  0.47241750  1.0
  Na+  Na218  1  0.40258250  0.56250000  0.72241750  1.0
  Na+  Na219  1  0.40258250  0.56250000  0.97241750  1.0
  Na+  Na220  1  0.40258250  0.81250000  0.22241750  1.0
  Na+  Na221  1  0.40258250  0.81250000  0.47241750  1.0
  Na+  Na222  1  0.40258250  0.81250000  0.72241750  1.0
  Na+  Na223  1  0.40258250  0.81250000  0.97241750  1.0
  Na+  Na224  1  0.65258250  0.06250000  0.22241750  1.0
  Na+  Na225  1  0.65258250  0.06250000  0.47241750  1.0
  Na+  Na226  1  0.65258250  0.06250000  0.72241750  1.0
  Na+  Na227  1  0.65258250  0.06250000  0.97241750  1.0
  Na+  Na228  1  0.65258250  0.31250000  0.22241750  1.0
  Na+  Na229  1  0.65258250  0.31250000  0.47241750  1.0
  Na+  Na230  1  0.65258250  0.31250000  0.72241750  1.0
  Na+  Na231  1  0.65258250  0.31250000  0.97241750  1.0
  Na+  Na232  1  0.65258250  0.56250000  0.22241750  1.0
  Na+  Na233  1  0.65258250  0.56250000  0.47241750  1.0
  Na+  Na234  1  0.65258250  0.56250000  0.72241750  1.0
  Na+  Na235  1  0.65258250  0.56250000  0.97241750  1.0
  Na+  Na236  1  0.65258250  0.81250000  0.22241750  1.0
  Na+  Na237  1  0.65258250  0.81250000  0.47241750  1.0
  Na+  Na238  1  0.65258250  0.81250000  0.72241750  1.0
  Na+  Na239  1  0.65258250  0.81250000  0.97241750  1.0
  Na+  Na240  1  0.90258250  0.06250000  0.22241750  1.0
  Na+  Na241  1  0.90258250  0.06250000  0.47241750  1.0
  Na+  Na242  1  0.90258250  0.06250000  0.72241750  1.0
  Na+  Na243  1  0.90258250  0.06250000  0.97241750  1.0
  Na+  Na244  1  0.90258250  0.31250000  0.22241750  1.0
  Na+  Na245  1  0.90258250  0.31250000  0.47241750  1.0
  Na+  Na246  1  0.90258250  0.31250000  0.72241750  1.0
  Na+  Na247  1  0.90258250  0.31250000  0.97241750  1.0
  Na+  Na248  1  0.90258250  0.56250000  0.22241750  1.0
  Na+  Na249  1  0.90258250  0.56250000  0.47241750  1.0
  Na+  Na250  1  0.90258250  0.56250000  0.72241750  1.0
  Na+  Na251  1  0.90258250  0.56250000  0.97241750  1.0
  Na+  Na252  1  0.90258250  0.81250000  0.22241750  1.0
  Na+  Na253  1  0.90258250  0.81250000  0.47241750  1.0
  Na+  Na254  1  0.90258250  0.81250000  0.72241750  1.0
  Na+  Na255  1  0.90258250  0.81250000  0.97241750  1.0
  Na+  Na256  1  0.06250000  0.22241750  0.15258250  1.0
  Na+  Na257  1  0.06250000  0.22241750  0.40258250  1.0
  Na+  Na258  1  0.06250000  0.22241750  0.65258250  1.0
  Na+  Na259  1  0.06250000  0.22241750  0.90258250  1.0
  Na+  Na260  1  0.06250000  0.47241750  0.15258250  1.0
  Na+  Na261  1  0.06250000  0.47241750  0.40258250  1.0
  Na+  Na262  1  0.06250000  0.47241750  0.65258250  1.0
  Na+  Na263  1  0.06250000  0.47241750  0.90258250  1.0
  Na+  Na264  1  0.06250000  0.72241750  0.15258250  1.0
  Na+  Na265  1  0.06250000  0.72241750  0.40258250  1.0
  Na+  Na266  1  0.06250000  0.72241750  0.65258250  1.0
  Na+  Na267  1  0.06250000  0.72241750  0.90258250  1.0
  Na+  Na268  1  0.06250000  0.97241750  0.15258250  1.0
  Na+  Na269  1  0.06250000  0.97241750  0.40258250  1.0
  Na+  Na270  1  0.06250000  0.97241750  0.65258250  1.0
  Na+  Na271  1  0.06250000  0.97241750  0.90258250  1.0
  Na+  Na272  1  0.31250000  0.22241750  0.15258250  1.0
  Na+  Na273  1  0.31250000  0.22241750  0.40258250  1.0
  Na+  Na274  1  0.31250000  0.22241750  0.65258250  1.0
  Na+  Na275  1  0.31250000  0.22241750  0.90258250  1.0
  Na+  Na276  1  0.31250000  0.47241750  0.15258250  1.0
  Na+  Na277  1  0.31250000  0.47241750  0.40258250  1.0
  Na+  Na278  1  0.31250000  0.47241750  0.65258250  1.0
  Na+  Na279  1  0.31250000  0.47241750  0.90258250  1.0
  Na+  Na280  1  0.31250000  0.72241750  0.15258250  1.0
  Na+  Na281  1  0.31250000  0.72241750  0.40258250  1.0
  Na+  Na282  1  0.31250000  0.72241750  0.65258250  1.0
  Na+  Na283  1  0.31250000  0.72241750  0.90258250  1.0
  Na+  Na284  1  0.31250000  0.97241750  0.15258250  1.0
  Na+  Na285  1  0.31250000  0.97241750  0.40258250  1.0
  Na+  Na286  1  0.31250000  0.97241750  0.65258250  1.0
  Na+  Na287  1  0.31250000  0.97241750  0.90258250  1.0
  Na+  Na288  1  0.56250000  0.22241750  0.15258250  1.0
  Na+  Na289  1  0.56250000  0.22241750  0.40258250  1.0
  Na+  Na290  1  0.56250000  0.22241750  0.65258250  1.0
  Na+  Na291  1  0.56250000  0.22241750  0.90258250  1.0
  Na+  Na292  1  0.56250000  0.47241750  0.15258250  1.0
  Na+  Na293  1  0.56250000  0.47241750  0.40258250  1.0
  Na+  Na294  1  0.56250000  0.47241750  0.65258250  1.0
  Na+  Na295  1  0.56250000  0.47241750  0.90258250  1.0
  Na+  Na296  1  0.56250000  0.72241750  0.15258250  1.0
  Na+  Na297  1  0.56250000  0.72241750  0.40258250  1.0
  Na+  Na298  1  0.56250000  0.72241750  0.65258250  1.0
  Na+  Na299  1  0.56250000  0.72241750  0.90258250  1.0
  Na+  Na300  1  0.56250000  0.97241750  0.15258250  1.0
  Na+  Na301  1  0.56250000  0.97241750  0.40258250  1.0
  Na+  Na302  1  0.56250000  0.97241750  0.65258250  1.0
  Na+  Na303  1  0.56250000  0.97241750  0.90258250  1.0
  Na+  Na304  1  0.81250000  0.22241750  0.15258250  1.0
  Na+  Na305  1  0.81250000  0.22241750  0.40258250  1.0
  Na+  Na306  1  0.81250000  0.22241750  0.65258250  1.0
  Na+  Na307  1  0.81250000  0.22241750  0.90258250  1.0
  Na+  Na308  1  0.81250000  0.47241750  0.15258250  1.0
  Na+  Na309  1  0.81250000  0.47241750  0.40258250  1.0
  Na+  Na310  1  0.81250000  0.47241750  0.65258250  1.0
  Na+  Na311  1  0.81250000  0.47241750  0.90258250  1.0
  Na+  Na312  1  0.81250000  0.72241750  0.15258250  1.0
  Na+  Na313  1  0.81250000  0.72241750  0.40258250  1.0
  Na+  Na314  1  0.81250000  0.72241750  0.65258250  1.0
  Na+  Na315  1  0.81250000  0.72241750  0.90258250  1.0
  Na+  Na316  1  0.81250000  0.97241750  0.15258250  1.0
  Na+  Na317  1  0.81250000  0.97241750  0.40258250  1.0
  Na+  Na318  1  0.81250000  0.97241750  0.65258250  1.0
  Na+  Na319  1  0.81250000  0.97241750  0.90258250  1.0
  Na+  Na320  1  0.09741750  0.18750000  0.02758250  1.0
  Na+  Na321  1  0.09741750  0.18750000  0.27758250  1.0
  Na+  Na322  1  0.09741750  0.18750000  0.52758250  1.0
  Na+  Na323  1  0.09741750  0.18750000  0.77758250  1.0
  Na+  Na324  1  0.09741750  0.43750000  0.02758250  1.0
  Na+  Na325  1  0.09741750  0.43750000  0.27758250  1.0
  Na+  Na326  1  0.09741750  0.43750000  0.52758250  1.0
  Na+  Na327  1  0.09741750  0.43750000  0.77758250  1.0
  Na+  Na328  1  0.09741750  0.68750000  0.02758250  1.0
  Na+  Na329  1  0.09741750  0.68750000  0.27758250  1.0
  Na+  Na330  1  0.09741750  0.68750000  0.52758250  1.0
  Na+  Na331  1  0.09741750  0.68750000  0.77758250  1.0
  Na+  Na332  1  0.09741750  0.93750000  0.02758250  1.0
  Na+  Na333  1  0.09741750  0.93750000  0.27758250  1.0
  Na+  Na334  1  0.09741750  0.93750000  0.52758250  1.0
  Na+  Na335  1  0.09741750  0.93750000  0.77758250  1.0
  Na+  Na336  1  0.34741750  0.18750000  0.02758250  1.0
  Na+  Na337  1  0.34741750  0.18750000  0.27758250  1.0
  Na+  Na338  1  0.34741750  0.18750000  0.52758250  1.0
  Na+  Na339  1  0.34741750  0.18750000  0.77758250  1.0
  Na+  Na340  1  0.34741750  0.43750000  0.02758250  1.0
  Na+  Na341  1  0.34741750  0.43750000  0.27758250  1.0
  Na+  Na342  1  0.34741750  0.43750000  0.52758250  1.0
  Na+  Na343  1  0.34741750  0.43750000  0.77758250  1.0
  Na+  Na344  1  0.34741750  0.68750000  0.02758250  1.0
  Na+  Na345  1  0.34741750  0.68750000  0.27758250  1.0
  Na+  Na346  1  0.34741750  0.68750000  0.52758250  1.0
  Na+  Na347  1  0.34741750  0.68750000  0.77758250  1.0
  Na+  Na348  1  0.34741750  0.93750000  0.02758250  1.0
  Na+  Na349  1  0.34741750  0.93750000  0.27758250  1.0
  Na+  Na350  1  0.34741750  0.93750000  0.52758250  1.0
  Na+  Na351  1  0.34741750  0.93750000  0.77758250  1.0
  Na+  Na352  1  0.59741750  0.18750000  0.02758250  1.0
  Na+  Na353  1  0.59741750  0.18750000  0.27758250  1.0
  Na+  Na354  1  0.59741750  0.18750000  0.52758250  1.0
  Na+  Na355  1  0.59741750  0.18750000  0.77758250  1.0
  Na+  Na356  1  0.59741750  0.43750000  0.02758250  1.0
  Na+  Na357  1  0.59741750  0.43750000  0.27758250  1.0
  Na+  Na358  1  0.59741750  0.43750000  0.52758250  1.0
  Na+  Na359  1  0.59741750  0.43750000  0.77758250  1.0
  Na+  Na360  1  0.59741750  0.68750000  0.02758250  1.0
  Na+  Na361  1  0.59741750  0.68750000  0.27758250  1.0
  Na+  Na362  1  0.59741750  0.68750000  0.52758250  1.0
  Na+  Na363  1  0.59741750  0.68750000  0.77758250  1.0
  Na+  Na364  1  0.59741750  0.93750000  0.02758250  1.0
  Na+  Na365  1  0.59741750  0.93750000  0.27758250  1.0
  Na+  Na366  1  0.59741750  0.93750000  0.52758250  1.0
  Na+  Na367  1  0.59741750  0.93750000  0.77758250  1.0
  Na+  Na368  1  0.84741750  0.18750000  0.02758250  1.0
  Na+  Na369  1  0.84741750  0.18750000  0.27758250  1.0
  Na+  Na370  1  0.84741750  0.18750000  0.52758250  1.0
  Na+  Na371  1  0.84741750  0.18750000  0.77758250  1.0
  Na+  Na372  1  0.84741750  0.43750000  0.02758250  1.0
  Na+  Na373  1  0.84741750  0.43750000  0.27758250  1.0
  Na+  Na374  1  0.84741750  0.43750000  0.52758250  1.0
  Na+  Na375  1  0.84741750  0.43750000  0.77758250  1.0
  Na+  Na376  1  0.84741750  0.68750000  0.02758250  1.0
  Na+  Na377  1  0.84741750  0.68750000  0.27758250  1.0
  Na+  Na378  1  0.84741750  0.68750000  0.52758250  1.0
  Na+  Na379  1  0.84741750  0.68750000  0.77758250  1.0
  Na+  Na380  1  0.84741750  0.93750000  0.02758250  1.0
  Na+  Na381  1  0.84741750  0.93750000  0.27758250  1.0
  Na+  Na382  1  0.84741750  0.93750000  0.52758250  1.0
  Na+  Na383  1  0.84741750  0.93750000  0.77758250  1.0
  Na+  Na384  1  0.18750000  0.02758250  0.09741750  1.0
  Na+  Na385  1  0.18750000  0.02758250  0.34741750  1.0
  Na+  Na386  1  0.18750000  0.02758250  0.59741750  1.0
  Na+  Na387  1  0.18750000  0.02758250  0.84741750  1.0
  Na+  Na388  1  0.18750000  0.27758250  0.09741750  1.0
  Na+  Na389  1  0.18750000  0.27758250  0.34741750  1.0
  Na+  Na390  1  0.18750000  0.27758250  0.59741750  1.0
  Na+  Na391  1  0.18750000  0.27758250  0.84741750  1.0
  Na+  Na392  1  0.18750000  0.52758250  0.09741750  1.0
  Na+  Na393  1  0.18750000  0.52758250  0.34741750  1.0
  Na+  Na394  1  0.18750000  0.52758250  0.59741750  1.0
  Na+  Na395  1  0.18750000  0.52758250  0.84741750  1.0
  Na+  Na396  1  0.18750000  0.77758250  0.09741750  1.0
  Na+  Na397  1  0.18750000  0.77758250  0.34741750  1.0
  Na+  Na398  1  0.18750000  0.77758250  0.59741750  1.0
  Na+  Na399  1  0.18750000  0.77758250  0.84741750  1.0
  Na+  Na400  1  0.43750000  0.02758250  0.09741750  1.0
  Na+  Na401  1  0.43750000  0.02758250  0.34741750  1.0
  Na+  Na402  1  0.43750000  0.02758250  0.59741750  1.0
  Na+  Na403  1  0.43750000  0.02758250  0.84741750  1.0
  Na+  Na404  1  0.43750000  0.27758250  0.09741750  1.0
  Na+  Na405  1  0.43750000  0.27758250  0.34741750  1.0
  Na+  Na406  1  0.43750000  0.27758250  0.59741750  1.0
  Na+  Na407  1  0.43750000  0.27758250  0.84741750  1.0
  Na+  Na408  1  0.43750000  0.52758250  0.09741750  1.0
  Na+  Na409  1  0.43750000  0.52758250  0.34741750  1.0
  Na+  Na410  1  0.43750000  0.52758250  0.59741750  1.0
  Na+  Na411  1  0.43750000  0.52758250  0.84741750  1.0
  Na+  Na412  1  0.43750000  0.77758250  0.09741750  1.0
  Na+  Na413  1  0.43750000  0.77758250  0.34741750  1.0
  Na+  Na414  1  0.43750000  0.77758250  0.59741750  1.0
  Na+  Na415  1  0.43750000  0.77758250  0.84741750  1.0
  Na+  Na416  1  0.68750000  0.02758250  0.09741750  1.0
  Na+  Na417  1  0.68750000  0.02758250  0.34741750  1.0
  Na+  Na418  1  0.68750000  0.02758250  0.59741750  1.0
  Na+  Na419  1  0.68750000  0.02758250  0.84741750  1.0
  Na+  Na420  1  0.68750000  0.27758250  0.09741750  1.0
  Na+  Na421  1  0.68750000  0.27758250  0.34741750  1.0
  Na+  Na422  1  0.68750000  0.27758250  0.59741750  1.0
  Na+  Na423  1  0.68750000  0.27758250  0.84741750  1.0
  Na+  Na424  1  0.68750000  0.52758250  0.09741750  1.0
  Na+  Na425  1  0.68750000  0.52758250  0.34741750  1.0
  Na+  Na426  1  0.68750000  0.52758250  0.59741750  1.0
  Na+  Na427  1  0.68750000  0.52758250  0.84741750  1.0
  Na+  Na428  1  0.68750000  0.77758250  0.09741750  1.0
  Na+  Na429  1  0.68750000  0.77758250  0.34741750  1.0
  Na+  Na430  1  0.68750000  0.77758250  0.59741750  1.0
  Na+  Na431  1  0.68750000  0.77758250  0.84741750  1.0
  Na+  Na432  1  0.93750000  0.02758250  0.09741750  1.0
  Na+  Na433  1  0.93750000  0.02758250  0.34741750  1.0
  Na+  Na434  1  0.93750000  0.02758250  0.59741750  1.0
  Na+  Na435  1  0.93750000  0.02758250  0.84741750  1.0
  Na+  Na436  1  0.93750000  0.27758250  0.09741750  1.0
  Na+  Na437  1  0.93750000  0.27758250  0.34741750  1.0
  Na+  Na438  1  0.93750000  0.27758250  0.59741750  1.0
  Na+  Na439  1  0.93750000  0.27758250  0.84741750  1.0
  Na+  Na440  1  0.93750000  0.52758250  0.09741750  1.0
  Na+  Na441  1  0.93750000  0.52758250  0.34741750  1.0
  Na+  Na442  1  0.93750000  0.52758250  0.59741750  1.0
  Na+  Na443  1  0.93750000  0.52758250  0.84741750  1.0
  Na+  Na444  1  0.93750000  0.77758250  0.09741750  1.0
  Na+  Na445  1  0.93750000  0.77758250  0.34741750  1.0
  Na+  Na446  1  0.93750000  0.77758250  0.59741750  1.0
  Na+  Na447  1  0.93750000  0.77758250  0.84741750  1.0
  Na+  Na448  1  0.02758250  0.09741750  0.18750000  1.0
  Na+  Na449  1  0.02758250  0.09741750  0.43750000  1.0
  Na+  Na450  1  0.02758250  0.09741750  0.68750000  1.0
  Na+  Na451  1  0.02758250  0.09741750  0.93750000  1.0
  Na+  Na452  1  0.02758250  0.34741750  0.18750000  1.0
  Na+  Na453  1  0.02758250  0.34741750  0.43750000  1.0
  Na+  Na454  1  0.02758250  0.34741750  0.68750000  1.0
  Na+  Na455  1  0.02758250  0.34741750  0.93750000  1.0
  Na+  Na456  1  0.02758250  0.59741750  0.18750000  1.0
  Na+  Na457  1  0.02758250  0.59741750  0.43750000  1.0
  Na+  Na458  1  0.02758250  0.59741750  0.68750000  1.0
  Na+  Na459  1  0.02758250  0.59741750  0.93750000  1.0
  Na+  Na460  1  0.02758250  0.84741750  0.18750000  1.0
  Na+  Na461  1  0.02758250  0.84741750  0.43750000  1.0
  Na+  Na462  1  0.02758250  0.84741750  0.68750000  1.0
  Na+  Na463  1  0.02758250  0.84741750  0.93750000  1.0
  Na+  Na464  1  0.27758250  0.09741750  0.18750000  1.0
  Na+  Na465  1  0.27758250  0.09741750  0.43750000  1.0
  Na+  Na466  1  0.27758250  0.09741750  0.68750000  1.0
  Na+  Na467  1  0.27758250  0.09741750  0.93750000  1.0
  Na+  Na468  1  0.27758250  0.34741750  0.18750000  1.0
  Na+  Na469  1  0.27758250  0.34741750  0.43750000  1.0
  Na+  Na470  1  0.27758250  0.34741750  0.68750000  1.0
  Na+  Na471  1  0.27758250  0.34741750  0.93750000  1.0
  Na+  Na472  1  0.27758250  0.59741750  0.18750000  1.0
  Na+  Na473  1  0.27758250  0.59741750  0.43750000  1.0
  Na+  Na474  1  0.27758250  0.59741750  0.68750000  1.0
  Na+  Na475  1  0.27758250  0.59741750  0.93750000  1.0
  Na+  Na476  1  0.27758250  0.84741750  0.18750000  1.0
  Na+  Na477  1  0.27758250  0.84741750  0.43750000  1.0
  Na+  Na478  1  0.27758250  0.84741750  0.68750000  1.0
  Na+  Na479  1  0.27758250  0.84741750  0.93750000  1.0
  Na+  Na480  1  0.52758250  0.09741750  0.18750000  1.0
  Na+  Na481  1  0.52758250  0.09741750  0.43750000  1.0
  Na+  Na482  1  0.52758250  0.09741750  0.68750000  1.0
  Na+  Na483  1  0.52758250  0.09741750  0.93750000  1.0
  Na+  Na484  1  0.52758250  0.34741750  0.18750000  1.0
  Na+  Na485  1  0.52758250  0.34741750  0.43750000  1.0
  Na+  Na486  1  0.52758250  0.34741750  0.68750000  1.0
  Na+  Na487  1  0.52758250  0.34741750  0.93750000  1.0
  Na+  Na488  1  0.52758250  0.59741750  0.18750000  1.0
  Na+  Na489  1  0.52758250  0.59741750  0.43750000  1.0
  Na+  Na490  1  0.52758250  0.59741750  0.68750000  1.0
  Na+  Na491  1  0.52758250  0.59741750  0.93750000  1.0
  Na+  Na492  1  0.52758250  0.84741750  0.18750000  1.0
  Na+  Na493  1  0.52758250  0.84741750  0.43750000  1.0
  Na+  Na494  1  0.52758250  0.84741750  0.68750000  1.0
  Na+  Na495  1  0.52758250  0.84741750  0.93750000  1.0
  Na+  Na496  1  0.77758250  0.09741750  0.18750000  1.0
  Na+  Na497  1  0.77758250  0.09741750  0.43750000  1.0
  Na+  Na498  1  0.77758250  0.09741750  0.68750000  1.0
  Na+  Na499  1  0.77758250  0.09741750  0.93750000  1.0
  Na+  Na500  1  0.77758250  0.34741750  0.18750000  1.0
  Na+  Na501  1  0.77758250  0.34741750  0.43750000  1.0
  Na+  Na502  1  0.77758250  0.34741750  0.68750000  1.0
  Na+  Na503  1  0.77758250  0.34741750  0.93750000  1.0
  Na+  Na504  1  0.77758250  0.59741750  0.18750000  1.0
  Na+  Na505  1  0.77758250  0.59741750  0.43750000  1.0
  Na+  Na506  1  0.77758250  0.59741750  0.68750000  1.0
  Na+  Na507  1  0.77758250  0.59741750  0.93750000  1.0
  Na+  Na508  1  0.77758250  0.84741750  0.18750000  1.0
  Na+  Na509  1  0.77758250  0.84741750  0.43750000  1.0
  Na+  Na510  1  0.77758250  0.84741750  0.68750000  1.0
  Na+  Na511  1  0.77758250  0.84741750  0.93750000  1.0
  Si4+  Si512  1  0.13636000  0.23864000  0.06250000  1.0
  Si4+  Si513  1  0.13636000  0.23864000  0.31250000  1.0
  Si4+  Si514  1  0.13636000  0.23864000  0.56250000  1.0
  Si4+  Si515  1  0.13636000  0.23864000  0.81250000  1.0
  Si4+  Si516  1  0.13636000  0.48864000  0.06250000  1.0
  Si4+  Si517  1  0.13636000  0.48864000  0.31250000  1.0
  Si4+  Si518  1  0.13636000  0.48864000  0.56250000  1.0
  Si4+  Si519  1  0.13636000  0.48864000  0.81250000  1.0
  Si4+  Si520  1  0.13636000  0.73864000  0.06250000  1.0
  Si4+  Si521  1  0.13636000  0.73864000  0.31250000  1.0
  Si4+  Si522  1  0.13636000  0.73864000  0.56250000  1.0
  Si4+  Si523  1  0.13636000  0.73864000  0.81250000  1.0
  Si4+  Si524  1  0.13636000  0.98864000  0.06250000  1.0
  Si4+  Si525  1  0.13636000  0.98864000  0.31250000  1.0
  Si4+  Si526  1  0.13636000  0.98864000  0.56250000  1.0
  Si4+  Si527  1  0.13636000  0.98864000  0.81250000  1.0
  Si4+  Si528  1  0.38636000  0.23864000  0.06250000  1.0
  Si4+  Si529  1  0.38636000  0.23864000  0.31250000  1.0
  Si4+  Si530  1  0.38636000  0.23864000  0.56250000  1.0
  Si4+  Si531  1  0.38636000  0.23864000  0.81250000  1.0
  Si4+  Si532  1  0.38636000  0.48864000  0.06250000  1.0
  Si4+  Si533  1  0.38636000  0.48864000  0.31250000  1.0
  Si4+  Si534  1  0.38636000  0.48864000  0.56250000  1.0
  Si4+  Si535  1  0.38636000  0.48864000  0.81250000  1.0
  Si4+  Si536  1  0.38636000  0.73864000  0.06250000  1.0
  Si4+  Si537  1  0.38636000  0.73864000  0.31250000  1.0
  Si4+  Si538  1  0.38636000  0.73864000  0.56250000  1.0
  Si4+  Si539  1  0.38636000  0.73864000  0.81250000  1.0
  Si4+  Si540  1  0.38636000  0.98864000  0.06250000  1.0
  Si4+  Si541  1  0.38636000  0.98864000  0.31250000  1.0
  Si4+  Si542  1  0.38636000  0.98864000  0.56250000  1.0
  Si4+  Si543  1  0.38636000  0.98864000  0.81250000  1.0
  Si4+  Si544  1  0.63636000  0.23864000  0.06250000  1.0
  Si4+  Si545  1  0.63636000  0.23864000  0.31250000  1.0
  Si4+  Si546  1  0.63636000  0.23864000  0.56250000  1.0
  Si4+  Si547  1  0.63636000  0.23864000  0.81250000  1.0
  Si4+  Si548  1  0.63636000  0.48864000  0.06250000  1.0
  Si4+  Si549  1  0.63636000  0.48864000  0.31250000  1.0
  Si4+  Si550  1  0.63636000  0.48864000  0.56250000  1.0
  Si4+  Si551  1  0.63636000  0.48864000  0.81250000  1.0
  Si4+  Si552  1  0.63636000  0.73864000  0.06250000  1.0
  Si4+  Si553  1  0.63636000  0.73864000  0.31250000  1.0
  Si4+  Si554  1  0.63636000  0.73864000  0.56250000  1.0
  Si4+  Si555  1  0.63636000  0.73864000  0.81250000  1.0
  Si4+  Si556  1  0.63636000  0.98864000  0.06250000  1.0
  Si4+  Si557  1  0.63636000  0.98864000  0.31250000  1.0
  Si4+  Si558  1  0.63636000  0.98864000  0.56250000  1.0
  Si4+  Si559  1  0.63636000  0.98864000  0.81250000  1.0
  Si4+  Si560  1  0.88636000  0.23864000  0.06250000  1.0
  Si4+  Si561  1  0.88636000  0.23864000  0.31250000  1.0
  Si4+  Si562  1  0.88636000  0.23864000  0.56250000  1.0
  Si4+  Si563  1  0.88636000  0.23864000  0.81250000  1.0
  Si4+  Si564  1  0.88636000  0.48864000  0.06250000  1.0
  Si4+  Si565  1  0.88636000  0.48864000  0.31250000  1.0
  Si4+  Si566  1  0.88636000  0.48864000  0.56250000  1.0
  Si4+  Si567  1  0.88636000  0.48864000  0.81250000  1.0
  Si4+  Si568  1  0.88636000  0.73864000  0.06250000  1.0
  Si4+  Si569  1  0.88636000  0.73864000  0.31250000  1.0
  Si4+  Si570  1  0.88636000  0.73864000  0.56250000  1.0
  Si4+  Si571  1  0.88636000  0.73864000  0.81250000  1.0
  Si4+  Si572  1  0.88636000  0.98864000  0.06250000  1.0
  Si4+  Si573  1  0.88636000  0.98864000  0.31250000  1.0
  Si4+  Si574  1  0.88636000  0.98864000  0.56250000  1.0
  Si4+  Si575  1  0.88636000  0.98864000  0.81250000  1.0
  Si4+  Si576  1  0.23864000  0.06250000  0.13636000  1.0
  Si4+  Si577  1  0.23864000  0.06250000  0.38636000  1.0
  Si4+  Si578  1  0.23864000  0.06250000  0.63636000  1.0
  Si4+  Si579  1  0.23864000  0.06250000  0.88636000  1.0
  Si4+  Si580  1  0.23864000  0.31250000  0.13636000  1.0
  Si4+  Si581  1  0.23864000  0.31250000  0.38636000  1.0
  Si4+  Si582  1  0.23864000  0.31250000  0.63636000  1.0
  Si4+  Si583  1  0.23864000  0.31250000  0.88636000  1.0
  Si4+  Si584  1  0.23864000  0.56250000  0.13636000  1.0
  Si4+  Si585  1  0.23864000  0.56250000  0.38636000  1.0
  Si4+  Si586  1  0.23864000  0.56250000  0.63636000  1.0
  Si4+  Si587  1  0.23864000  0.56250000  0.88636000  1.0
  Si4+  Si588  1  0.23864000  0.81250000  0.13636000  1.0
  Si4+  Si589  1  0.23864000  0.81250000  0.38636000  1.0
  Si4+  Si590  1  0.23864000  0.81250000  0.63636000  1.0
  Si4+  Si591  1  0.23864000  0.81250000  0.88636000  1.0
  Si4+  Si592  1  0.48864000  0.06250000  0.13636000  1.0
  Si4+  Si593  1  0.48864000  0.06250000  0.38636000  1.0
  Si4+  Si594  1  0.48864000  0.06250000  0.63636000  1.0
  Si4+  Si595  1  0.48864000  0.06250000  0.88636000  1.0
  Si4+  Si596  1  0.48864000  0.31250000  0.13636000  1.0
  Si4+  Si597  1  0.48864000  0.31250000  0.38636000  1.0
  Si4+  Si598  1  0.48864000  0.31250000  0.63636000  1.0
  Si4+  Si599  1  0.48864000  0.31250000  0.88636000  1.0
  Si4+  Si600  1  0.48864000  0.56250000  0.13636000  1.0
  Si4+  Si601  1  0.48864000  0.56250000  0.38636000  1.0
  Si4+  Si602  1  0.48864000  0.56250000  0.63636000  1.0
  Si4+  Si603  1  0.48864000  0.56250000  0.88636000  1.0
  Si4+  Si604  1  0.48864000  0.81250000  0.13636000  1.0
  Si4+  Si605  1  0.48864000  0.81250000  0.38636000  1.0
  Si4+  Si606  1  0.48864000  0.81250000  0.63636000  1.0
  Si4+  Si607  1  0.48864000  0.81250000  0.88636000  1.0
  Si4+  Si608  1  0.73864000  0.06250000  0.13636000  1.0
  Si4+  Si609  1  0.73864000  0.06250000  0.38636000  1.0
  Si4+  Si610  1  0.73864000  0.06250000  0.63636000  1.0
  Si4+  Si611  1  0.73864000  0.06250000  0.88636000  1.0
  Si4+  Si612  1  0.73864000  0.31250000  0.13636000  1.0
  Si4+  Si613  1  0.73864000  0.31250000  0.38636000  1.0
  Si4+  Si614  1  0.73864000  0.31250000  0.63636000  1.0
  Si4+  Si615  1  0.73864000  0.31250000  0.88636000  1.0
  Si4+  Si616  1  0.73864000  0.56250000  0.13636000  1.0
  Si4+  Si617  1  0.73864000  0.56250000  0.38636000  1.0
  Si4+  Si618  1  0.73864000  0.56250000  0.63636000  1.0
  Si4+  Si619  1  0.73864000  0.56250000  0.88636000  1.0
  Si4+  Si620  1  0.73864000  0.81250000  0.13636000  1.0
  Si4+  Si621  1  0.73864000  0.81250000  0.38636000  1.0
  Si4+  Si622  1  0.73864000  0.81250000  0.63636000  1.0
  Si4+  Si623  1  0.73864000  0.81250000  0.88636000  1.0
  Si4+  Si624  1  0.98864000  0.06250000  0.13636000  1.0
  Si4+  Si625  1  0.98864000  0.06250000  0.38636000  1.0
  Si4+  Si626  1  0.98864000  0.06250000  0.63636000  1.0
  Si4+  Si627  1  0.98864000  0.06250000  0.88636000  1.0
  Si4+  Si628  1  0.98864000  0.31250000  0.13636000  1.0
  Si4+  Si629  1  0.98864000  0.31250000  0.38636000  1.0
  Si4+  Si630  1  0.98864000  0.31250000  0.63636000  1.0
  Si4+  Si631  1  0.98864000  0.31250000  0.88636000  1.0
  Si4+  Si632  1  0.98864000  0.56250000  0.13636000  1.0
  Si4+  Si633  1  0.98864000  0.56250000  0.38636000  1.0
  Si4+  Si634  1  0.98864000  0.56250000  0.63636000  1.0
  Si4+  Si635  1  0.98864000  0.56250000  0.88636000  1.0
  Si4+  Si636  1  0.98864000  0.81250000  0.13636000  1.0
  Si4+  Si637  1  0.98864000  0.81250000  0.38636000  1.0
  Si4+  Si638  1  0.98864000  0.81250000  0.63636000  1.0
  Si4+  Si639  1  0.98864000  0.81250000  0.88636000  1.0
  Si4+  Si640  1  0.06250000  0.13636000  0.23864000  1.0
  Si4+  Si641  1  0.06250000  0.13636000  0.48864000  1.0
  Si4+  Si642  1  0.06250000  0.13636000  0.73864000  1.0
  Si4+  Si643  1  0.06250000  0.13636000  0.98864000  1.0
  Si4+  Si644  1  0.06250000  0.38636000  0.23864000  1.0
  Si4+  Si645  1  0.06250000  0.38636000  0.48864000  1.0
  Si4+  Si646  1  0.06250000  0.38636000  0.73864000  1.0
  Si4+  Si647  1  0.06250000  0.38636000  0.98864000  1.0
  Si4+  Si648  1  0.06250000  0.63636000  0.23864000  1.0
  Si4+  Si649  1  0.06250000  0.63636000  0.48864000  1.0
  Si4+  Si650  1  0.06250000  0.63636000  0.73864000  1.0
  Si4+  Si651  1  0.06250000  0.63636000  0.98864000  1.0
  Si4+  Si652  1  0.06250000  0.88636000  0.23864000  1.0
  Si4+  Si653  1  0.06250000  0.88636000  0.48864000  1.0
  Si4+  Si654  1  0.06250000  0.88636000  0.73864000  1.0
  Si4+  Si655  1  0.06250000  0.88636000  0.98864000  1.0
  Si4+  Si656  1  0.31250000  0.13636000  0.23864000  1.0
  Si4+  Si657  1  0.31250000  0.13636000  0.48864000  1.0
  Si4+  Si658  1  0.31250000  0.13636000  0.73864000  1.0
  Si4+  Si659  1  0.31250000  0.13636000  0.98864000  1.0
  Si4+  Si660  1  0.31250000  0.38636000  0.23864000  1.0
  Si4+  Si661  1  0.31250000  0.38636000  0.48864000  1.0
  Si4+  Si662  1  0.31250000  0.38636000  0.73864000  1.0
  Si4+  Si663  1  0.31250000  0.38636000  0.98864000  1.0
  Si4+  Si664  1  0.31250000  0.63636000  0.23864000  1.0
  Si4+  Si665  1  0.31250000  0.63636000  0.48864000  1.0
  Si4+  Si666  1  0.31250000  0.63636000  0.73864000  1.0
  Si4+  Si667  1  0.31250000  0.63636000  0.98864000  1.0
  Si4+  Si668  1  0.31250000  0.88636000  0.23864000  1.0
  Si4+  Si669  1  0.31250000  0.88636000  0.48864000  1.0
  Si4+  Si670  1  0.31250000  0.88636000  0.73864000  1.0
  Si4+  Si671  1  0.31250000  0.88636000  0.98864000  1.0
  Si4+  Si672  1  0.56250000  0.13636000  0.23864000  1.0
  Si4+  Si673  1  0.56250000  0.13636000  0.48864000  1.0
  Si4+  Si674  1  0.56250000  0.13636000  0.73864000  1.0
  Si4+  Si675  1  0.56250000  0.13636000  0.98864000  1.0
  Si4+  Si676  1  0.56250000  0.38636000  0.23864000  1.0
  Si4+  Si677  1  0.56250000  0.38636000  0.48864000  1.0
  Si4+  Si678  1  0.56250000  0.38636000  0.73864000  1.0
  Si4+  Si679  1  0.56250000  0.38636000  0.98864000  1.0
  Si4+  Si680  1  0.56250000  0.63636000  0.23864000  1.0
  Si4+  Si681  1  0.56250000  0.63636000  0.48864000  1.0
  Si4+  Si682  1  0.56250000  0.63636000  0.73864000  1.0
  Si4+  Si683  1  0.56250000  0.63636000  0.98864000  1.0
  Si4+  Si684  1  0.56250000  0.88636000  0.23864000  1.0
  Si4+  Si685  1  0.56250000  0.88636000  0.48864000  1.0
  Si4+  Si686  1  0.56250000  0.88636000  0.73864000  1.0
  Si4+  Si687  1  0.56250000  0.88636000  0.98864000  1.0
  Si4+  Si688  1  0.81250000  0.13636000  0.23864000  1.0
  Si4+  Si689  1  0.81250000  0.13636000  0.48864000  1.0
  Si4+  Si690  1  0.81250000  0.13636000  0.73864000  1.0
  Si4+  Si691  1  0.81250000  0.13636000  0.98864000  1.0
  Si4+  Si692  1  0.81250000  0.38636000  0.23864000  1.0
  Si4+  Si693  1  0.81250000  0.38636000  0.48864000  1.0
  Si4+  Si694  1  0.81250000  0.38636000  0.73864000  1.0
  Si4+  Si695  1  0.81250000  0.38636000  0.98864000  1.0
  Si4+  Si696  1  0.81250000  0.63636000  0.23864000  1.0
  Si4+  Si697  1  0.81250000  0.63636000  0.48864000  1.0
  Si4+  Si698  1  0.81250000  0.63636000  0.73864000  1.0
  Si4+  Si699  1  0.81250000  0.63636000  0.98864000  1.0
  Si4+  Si700  1  0.81250000  0.88636000  0.23864000  1.0
  Si4+  Si701  1  0.81250000  0.88636000  0.48864000  1.0
  Si4+  Si702  1  0.81250000  0.88636000  0.73864000  1.0
  Si4+  Si703  1  0.81250000  0.88636000  0.98864000  1.0
  Si4+  Si704  1  0.01136000  0.18750000  0.11364000  1.0
  Si4+  Si705  1  0.01136000  0.18750000  0.36364000  1.0
  Si4+  Si706  1  0.01136000  0.18750000  0.61364000  1.0
  Si4+  Si707  1  0.01136000  0.18750000  0.86364000  1.0
  Si4+  Si708  1  0.01136000  0.43750000  0.11364000  1.0
  Si4+  Si709  1  0.01136000  0.43750000  0.36364000  1.0
  Si4+  Si710  1  0.01136000  0.43750000  0.61364000  1.0
  Si4+  Si711  1  0.01136000  0.43750000  0.86364000  1.0
  Si4+  Si712  1  0.01136000  0.68750000  0.11364000  1.0
  Si4+  Si713  1  0.01136000  0.68750000  0.36364000  1.0
  Si4+  Si714  1  0.01136000  0.68750000  0.61364000  1.0
  Si4+  Si715  1  0.01136000  0.68750000  0.86364000  1.0
  Si4+  Si716  1  0.01136000  0.93750000  0.11364000  1.0
  Si4+  Si717  1  0.01136000  0.93750000  0.36364000  1.0
  Si4+  Si718  1  0.01136000  0.93750000  0.61364000  1.0
  Si4+  Si719  1  0.01136000  0.93750000  0.86364000  1.0
  Si4+  Si720  1  0.26136000  0.18750000  0.11364000  1.0
  Si4+  Si721  1  0.26136000  0.18750000  0.36364000  1.0
  Si4+  Si722  1  0.26136000  0.18750000  0.61364000  1.0
  Si4+  Si723  1  0.26136000  0.18750000  0.86364000  1.0
  Si4+  Si724  1  0.26136000  0.43750000  0.11364000  1.0
  Si4+  Si725  1  0.26136000  0.43750000  0.36364000  1.0
  Si4+  Si726  1  0.26136000  0.43750000  0.61364000  1.0
  Si4+  Si727  1  0.26136000  0.43750000  0.86364000  1.0
  Si4+  Si728  1  0.26136000  0.68750000  0.11364000  1.0
  Si4+  Si729  1  0.26136000  0.68750000  0.36364000  1.0
  Si4+  Si730  1  0.26136000  0.68750000  0.61364000  1.0
  Si4+  Si731  1  0.26136000  0.68750000  0.86364000  1.0
  Si4+  Si732  1  0.26136000  0.93750000  0.11364000  1.0
  Si4+  Si733  1  0.26136000  0.93750000  0.36364000  1.0
  Si4+  Si734  1  0.26136000  0.93750000  0.61364000  1.0
  Si4+  Si735  1  0.26136000  0.93750000  0.86364000  1.0
  Si4+  Si736  1  0.51136000  0.18750000  0.11364000  1.0
  Si4+  Si737  1  0.51136000  0.18750000  0.36364000  1.0
  Si4+  Si738  1  0.51136000  0.18750000  0.61364000  1.0
  Si4+  Si739  1  0.51136000  0.18750000  0.86364000  1.0
  Si4+  Si740  1  0.51136000  0.43750000  0.11364000  1.0
  Si4+  Si741  1  0.51136000  0.43750000  0.36364000  1.0
  Si4+  Si742  1  0.51136000  0.43750000  0.61364000  1.0
  Si4+  Si743  1  0.51136000  0.43750000  0.86364000  1.0
  Si4+  Si744  1  0.51136000  0.68750000  0.11364000  1.0
  Si4+  Si745  1  0.51136000  0.68750000  0.36364000  1.0
  Si4+  Si746  1  0.51136000  0.68750000  0.61364000  1.0
  Si4+  Si747  1  0.51136000  0.68750000  0.86364000  1.0
  Si4+  Si748  1  0.51136000  0.93750000  0.11364000  1.0
  Si4+  Si749  1  0.51136000  0.93750000  0.36364000  1.0
  Si4+  Si750  1  0.51136000  0.93750000  0.61364000  1.0
  Si4+  Si751  1  0.51136000  0.93750000  0.86364000  1.0
  Si4+  Si752  1  0.76136000  0.18750000  0.11364000  1.0
  Si4+  Si753  1  0.76136000  0.18750000  0.36364000  1.0
  Si4+  Si754  1  0.76136000  0.18750000  0.61364000  1.0
  Si4+  Si755  1  0.76136000  0.18750000  0.86364000  1.0
  Si4+  Si756  1  0.76136000  0.43750000  0.11364000  1.0
  Si4+  Si757  1  0.76136000  0.43750000  0.36364000  1.0
  Si4+  Si758  1  0.76136000  0.43750000  0.61364000  1.0
  Si4+  Si759  1  0.76136000  0.43750000  0.86364000  1.0
  Si4+  Si760  1  0.76136000  0.68750000  0.11364000  1.0
  Si4+  Si761  1  0.76136000  0.68750000  0.36364000  1.0
  Si4+  Si762  1  0.76136000  0.68750000  0.61364000  1.0
  Si4+  Si763  1  0.76136000  0.68750000  0.86364000  1.0
  Si4+  Si764  1  0.76136000  0.93750000  0.11364000  1.0
  Si4+  Si765  1  0.76136000  0.93750000  0.36364000  1.0
  Si4+  Si766  1  0.76136000  0.93750000  0.61364000  1.0
  Si4+  Si767  1  0.76136000  0.93750000  0.86364000  1.0
  Si4+  Si768  1  0.18750000  0.11364000  0.01136000  1.0
  Si4+  Si769  1  0.18750000  0.11364000  0.26136000  1.0
  Si4+  Si770  1  0.18750000  0.11364000  0.51136000  1.0
  Si4+  Si771  1  0.18750000  0.11364000  0.76136000  1.0
  Si4+  Si772  1  0.18750000  0.36364000  0.01136000  1.0
  Si4+  Si773  1  0.18750000  0.36364000  0.26136000  1.0
  Si4+  Si774  1  0.18750000  0.36364000  0.51136000  1.0
  Si4+  Si775  1  0.18750000  0.36364000  0.76136000  1.0
  Si4+  Si776  1  0.18750000  0.61364000  0.01136000  1.0
  Si4+  Si777  1  0.18750000  0.61364000  0.26136000  1.0
  Si4+  Si778  1  0.18750000  0.61364000  0.51136000  1.0
  Si4+  Si779  1  0.18750000  0.61364000  0.76136000  1.0
  Si4+  Si780  1  0.18750000  0.86364000  0.01136000  1.0
  Si4+  Si781  1  0.18750000  0.86364000  0.26136000  1.0
  Si4+  Si782  1  0.18750000  0.86364000  0.51136000  1.0
  Si4+  Si783  1  0.18750000  0.86364000  0.76136000  1.0
  Si4+  Si784  1  0.43750000  0.11364000  0.01136000  1.0
  Si4+  Si785  1  0.43750000  0.11364000  0.26136000  1.0
  Si4+  Si786  1  0.43750000  0.11364000  0.51136000  1.0
  Si4+  Si787  1  0.43750000  0.11364000  0.76136000  1.0
  Si4+  Si788  1  0.43750000  0.36364000  0.01136000  1.0
  Si4+  Si789  1  0.43750000  0.36364000  0.26136000  1.0
  Si4+  Si790  1  0.43750000  0.36364000  0.51136000  1.0
  Si4+  Si791  1  0.43750000  0.36364000  0.76136000  1.0
  Si4+  Si792  1  0.43750000  0.61364000  0.01136000  1.0
  Si4+  Si793  1  0.43750000  0.61364000  0.26136000  1.0
  Si4+  Si794  1  0.43750000  0.61364000  0.51136000  1.0
  Si4+  Si795  1  0.43750000  0.61364000  0.76136000  1.0
  Si4+  Si796  1  0.43750000  0.86364000  0.01136000  1.0
  Si4+  Si797  1  0.43750000  0.86364000  0.26136000  1.0
  Si4+  Si798  1  0.43750000  0.86364000  0.51136000  1.0
  Si4+  Si799  1  0.43750000  0.86364000  0.76136000  1.0
  Si4+  Si800  1  0.68750000  0.11364000  0.01136000  1.0
  Si4+  Si801  1  0.68750000  0.11364000  0.26136000  1.0
  Si4+  Si802  1  0.68750000  0.11364000  0.51136000  1.0
  Si4+  Si803  1  0.68750000  0.11364000  0.76136000  1.0
  Si4+  Si804  1  0.68750000  0.36364000  0.01136000  1.0
  Si4+  Si805  1  0.68750000  0.36364000  0.26136000  1.0
  Si4+  Si806  1  0.68750000  0.36364000  0.51136000  1.0
  Si4+  Si807  1  0.68750000  0.36364000  0.76136000  1.0
  Si4+  Si808  1  0.68750000  0.61364000  0.01136000  1.0
  Si4+  Si809  1  0.68750000  0.61364000  0.26136000  1.0
  Si4+  Si810  1  0.68750000  0.61364000  0.51136000  1.0
  Si4+  Si811  1  0.68750000  0.61364000  0.76136000  1.0
  Si4+  Si812  1  0.68750000  0.86364000  0.01136000  1.0
  Si4+  Si813  1  0.68750000  0.86364000  0.26136000  1.0
  Si4+  Si814  1  0.68750000  0.86364000  0.51136000  1.0
  Si4+  Si815  1  0.68750000  0.86364000  0.76136000  1.0
  Si4+  Si816  1  0.93750000  0.11364000  0.01136000  1.0
  Si4+  Si817  1  0.93750000  0.11364000  0.26136000  1.0
  Si4+  Si818  1  0.93750000  0.11364000  0.51136000  1.0
  Si4+  Si819  1  0.93750000  0.11364000  0.76136000  1.0
  Si4+  Si820  1  0.93750000  0.36364000  0.01136000  1.0
  Si4+  Si821  1  0.93750000  0.36364000  0.26136000  1.0
  Si4+  Si822  1  0.93750000  0.36364000  0.51136000  1.0
  Si4+  Si823  1  0.93750000  0.36364000  0.76136000  1.0
  Si4+  Si824  1  0.93750000  0.61364000  0.01136000  1.0
  Si4+  Si825  1  0.93750000  0.61364000  0.26136000  1.0
  Si4+  Si826  1  0.93750000  0.61364000  0.51136000  1.0
  Si4+  Si827  1  0.93750000  0.61364000  0.76136000  1.0
  Si4+  Si828  1  0.93750000  0.86364000  0.01136000  1.0
  Si4+  Si829  1  0.93750000  0.86364000  0.26136000  1.0
  Si4+  Si830  1  0.93750000  0.86364000  0.51136000  1.0
  Si4+  Si831  1  0.93750000  0.86364000  0.76136000  1.0
  Si4+  Si832  1  0.11364000  0.01136000  0.18750000  1.0
  Si4+  Si833  1  0.11364000  0.01136000  0.43750000  1.0
  Si4+  Si834  1  0.11364000  0.01136000  0.68750000  1.0
  Si4+  Si835  1  0.11364000  0.01136000  0.93750000  1.0
  Si4+  Si836  1  0.11364000  0.26136000  0.18750000  1.0
  Si4+  Si837  1  0.11364000  0.26136000  0.43750000  1.0
  Si4+  Si838  1  0.11364000  0.26136000  0.68750000  1.0
  Si4+  Si839  1  0.11364000  0.26136000  0.93750000  1.0
  Si4+  Si840  1  0.11364000  0.51136000  0.18750000  1.0
  Si4+  Si841  1  0.11364000  0.51136000  0.43750000  1.0
  Si4+  Si842  1  0.11364000  0.51136000  0.68750000  1.0
  Si4+  Si843  1  0.11364000  0.51136000  0.93750000  1.0
  Si4+  Si844  1  0.11364000  0.76136000  0.18750000  1.0
  Si4+  Si845  1  0.11364000  0.76136000  0.43750000  1.0
  Si4+  Si846  1  0.11364000  0.76136000  0.68750000  1.0
  Si4+  Si847  1  0.11364000  0.76136000  0.93750000  1.0
  Si4+  Si848  1  0.36364000  0.01136000  0.18750000  1.0
  Si4+  Si849  1  0.36364000  0.01136000  0.43750000  1.0
  Si4+  Si850  1  0.36364000  0.01136000  0.68750000  1.0
  Si4+  Si851  1  0.36364000  0.01136000  0.93750000  1.0
  Si4+  Si852  1  0.36364000  0.26136000  0.18750000  1.0
  Si4+  Si853  1  0.36364000  0.26136000  0.43750000  1.0
  Si4+  Si854  1  0.36364000  0.26136000  0.68750000  1.0
  Si4+  Si855  1  0.36364000  0.26136000  0.93750000  1.0
  Si4+  Si856  1  0.36364000  0.51136000  0.18750000  1.0
  Si4+  Si857  1  0.36364000  0.51136000  0.43750000  1.0
  Si4+  Si858  1  0.36364000  0.51136000  0.68750000  1.0
  Si4+  Si859  1  0.36364000  0.51136000  0.93750000  1.0
  Si4+  Si860  1  0.36364000  0.76136000  0.18750000  1.0
  Si4+  Si861  1  0.36364000  0.76136000  0.43750000  1.0
  Si4+  Si862  1  0.36364000  0.76136000  0.68750000  1.0
  Si4+  Si863  1  0.36364000  0.76136000  0.93750000  1.0
  Si4+  Si864  1  0.61364000  0.01136000  0.18750000  1.0
  Si4+  Si865  1  0.61364000  0.01136000  0.43750000  1.0
  Si4+  Si866  1  0.61364000  0.01136000  0.68750000  1.0
  Si4+  Si867  1  0.61364000  0.01136000  0.93750000  1.0
  Si4+  Si868  1  0.61364000  0.26136000  0.18750000  1.0
  Si4+  Si869  1  0.61364000  0.26136000  0.43750000  1.0
  Si4+  Si870  1  0.61364000  0.26136000  0.68750000  1.0
  Si4+  Si871  1  0.61364000  0.26136000  0.93750000  1.0
  Si4+  Si872  1  0.61364000  0.51136000  0.18750000  1.0
  Si4+  Si873  1  0.61364000  0.51136000  0.43750000  1.0
  Si4+  Si874  1  0.61364000  0.51136000  0.68750000  1.0
  Si4+  Si875  1  0.61364000  0.51136000  0.93750000  1.0
  Si4+  Si876  1  0.61364000  0.76136000  0.18750000  1.0
  Si4+  Si877  1  0.61364000  0.76136000  0.43750000  1.0
  Si4+  Si878  1  0.61364000  0.76136000  0.68750000  1.0
  Si4+  Si879  1  0.61364000  0.76136000  0.93750000  1.0
  Si4+  Si880  1  0.86364000  0.01136000  0.18750000  1.0
  Si4+  Si881  1  0.86364000  0.01136000  0.43750000  1.0
  Si4+  Si882  1  0.86364000  0.01136000  0.68750000  1.0
  Si4+  Si883  1  0.86364000  0.01136000  0.93750000  1.0
  Si4+  Si884  1  0.86364000  0.26136000  0.18750000  1.0
  Si4+  Si885  1  0.86364000  0.26136000  0.43750000  1.0
  Si4+  Si886  1  0.86364000  0.26136000  0.68750000  1.0
  Si4+  Si887  1  0.86364000  0.26136000  0.93750000  1.0
  Si4+  Si888  1  0.86364000  0.51136000  0.18750000  1.0
  Si4+  Si889  1  0.86364000  0.51136000  0.43750000  1.0
  Si4+  Si890  1  0.86364000  0.51136000  0.68750000  1.0
  Si4+  Si891  1  0.86364000  0.51136000  0.93750000  1.0
  Si4+  Si892  1  0.86364000  0.76136000  0.18750000  1.0
  Si4+  Si893  1  0.86364000  0.76136000  0.43750000  1.0
  Si4+  Si894  1  0.86364000  0.76136000  0.68750000  1.0
  Si4+  Si895  1  0.86364000  0.76136000  0.93750000  1.0
