# generated using pymatgen
data_Na4Si3
_symmetry_space_group_name_H-M   'P 1'
_cell_length_a   72.79370473
_cell_length_b   72.79370473
_cell_length_c   72.79370667
_cell_angle_alpha   60.63421477
_cell_angle_beta   60.63421477
_cell_angle_gamma   60.63421672
_symmetry_Int_Tables_number   1
_chemical_formula_structural   Na4Si3
_chemical_formula_sum   'Na4096 Si3072'
_cell_volume   276657.03530837
_cell_formula_units_Z   1024
loop_
 _symmetry_equiv_pos_site_id
 _symmetry_equiv_pos_as_xyz
  1  'x, y, z'
loop_
 _atom_site_type_symbol
 _atom_site_label
 _atom_site_symmetry_multiplicity
 _atom_site_fract_x
 _atom_site_fract_y
 _atom_site_fract_z
 _atom_site_occupancy
  Na  Na0  1  0.06250000  0.06250000  0.06250000  1
  Na  Na1  1  0.06250000  0.06250000  0.18750000  1
  Na  Na2  1  0.06250000  0.06250000  0.31250000  1
  Na  Na3  1  0.06250000  0.06250000  0.43750000  1
  Na  Na4  1  0.06250000  0.06250000  0.56250000  1
  Na  Na5  1  0.06250000  0.06250000  0.68750000  1
  Na  Na6  1  0.06250000  0.06250000  0.81250000  1
  Na  Na7  1  0.06250000  0.06250000  0.93750000  1
  Na  Na8  1  0.06250000  0.18750000  0.06250000  1
  Na  Na9  1  0.06250000  0.18750000  0.18750000  1
  Na  Na10  1  0.06250000  0.18750000  0.31250000  1
  Na  Na11  1  0.06250000  0.18750000  0.43750000  1
  Na  Na12  1  0.06250000  0.18750000  0.56250000  1
  Na  Na13  1  0.06250000  0.18750000  0.68750000  1
  Na  Na14  1  0.06250000  0.18750000  0.81250000  1
  Na  Na15  1  0.06250000  0.18750000  0.93750000  1
  Na  Na16  1  0.06250000  0.31250000  0.06250000  1
  Na  Na17  1  0.06250000  0.31250000  0.18750000  1
  Na  Na18  1  0.06250000  0.31250000  0.31250000  1
  Na  Na19  1  0.06250000  0.31250000  0.43750000  1
  Na  Na20  1  0.06250000  0.31250000  0.56250000  1
  Na  Na21  1  0.06250000  0.31250000  0.68750000  1
  Na  Na22  1  0.06250000  0.31250000  0.81250000  1
  Na  Na23  1  0.06250000  0.31250000  0.93750000  1
  Na  Na24  1  0.06250000  0.43750000  0.06250000  1
  Na  Na25  1  0.06250000  0.43750000  0.18750000  1
  Na  Na26  1  0.06250000  0.43750000  0.31250000  1
  Na  Na27  1  0.06250000  0.43750000  0.43750000  1
  Na  Na28  1  0.06250000  0.43750000  0.56250000  1
  Na  Na29  1  0.06250000  0.43750000  0.68750000  1
  Na  Na30  1  0.06250000  0.43750000  0.81250000  1
  Na  Na31  1  0.06250000  0.43750000  0.93750000  1
  Na  Na32  1  0.06250000  0.56250000  0.06250000  1
  Na  Na33  1  0.06250000  0.56250000  0.18750000  1
  Na  Na34  1  0.06250000  0.56250000  0.31250000  1
  Na  Na35  1  0.06250000  0.56250000  0.43750000  1
  Na  Na36  1  0.06250000  0.56250000  0.56250000  1
  Na  Na37  1  0.06250000  0.56250000  0.68750000  1
  Na  Na38  1  0.06250000  0.56250000  0.81250000  1
  Na  Na39  1  0.06250000  0.56250000  0.93750000  1
  Na  Na40  1  0.06250000  0.68750000  0.06250000  1
  Na  Na41  1  0.06250000  0.68750000  0.18750000  1
  Na  Na42  1  0.06250000  0.68750000  0.31250000  1
  Na  Na43  1  0.06250000  0.68750000  0.43750000  1
  Na  Na44  1  0.06250000  0.68750000  0.56250000  1
  Na  Na45  1  0.06250000  0.68750000  0.68750000  1
  Na  Na46  1  0.06250000  0.68750000  0.81250000  1
  Na  Na47  1  0.06250000  0.68750000  0.93750000  1
  Na  Na48  1  0.06250000  0.81250000  0.06250000  1
  Na  Na49  1  0.06250000  0.81250000  0.18750000  1
  Na  Na50  1  0.06250000  0.81250000  0.31250000  1
  Na  Na51  1  0.06250000  0.81250000  0.43750000  1
  Na  Na52  1  0.06250000  0.81250000  0.56250000  1
  Na  Na53  1  0.06250000  0.81250000  0.68750000  1
  Na  Na54  1  0.06250000  0.81250000  0.81250000  1
  Na  Na55  1  0.06250000  0.81250000  0.93750000  1
  Na  Na56  1  0.06250000  0.93750000  0.06250000  1
  Na  Na57  1  0.06250000  0.93750000  0.18750000  1
  Na  Na58  1  0.06250000  0.93750000  0.31250000  1
  Na  Na59  1  0.06250000  0.93750000  0.43750000  1
  Na  Na60  1  0.06250000  0.93750000  0.56250000  1
  Na  Na61  1  0.06250000  0.93750000  0.68750000  1
  Na  Na62  1  0.06250000  0.93750000  0.81250000  1
  Na  Na63  1  0.06250000  0.93750000  0.93750000  1
  Na  Na64  1  0.18750000  0.06250000  0.06250000  1
  Na  Na65  1  0.18750000  0.06250000  0.18750000  1
  Na  Na66  1  0.18750000  0.06250000  0.31250000  1
  Na  Na67  1  0.18750000  0.06250000  0.43750000  1
  Na  Na68  1  0.18750000  0.06250000  0.56250000  1
  Na  Na69  1  0.18750000  0.06250000  0.68750000  1
  Na  Na70  1  0.18750000  0.06250000  0.81250000  1
  Na  Na71  1  0.18750000  0.06250000  0.93750000  1
  Na  Na72  1  0.18750000  0.18750000  0.06250000  1
  Na  Na73  1  0.18750000  0.18750000  0.18750000  1
  Na  Na74  1  0.18750000  0.18750000  0.31250000  1
  Na  Na75  1  0.18750000  0.18750000  0.43750000  1
  Na  Na76  1  0.18750000  0.18750000  0.56250000  1
  Na  Na77  1  0.18750000  0.18750000  0.68750000  1
  Na  Na78  1  0.18750000  0.18750000  0.81250000  1
  Na  Na79  1  0.18750000  0.18750000  0.93750000  1
  Na  Na80  1  0.18750000  0.31250000  0.06250000  1
  Na  Na81  1  0.18750000  0.31250000  0.18750000  1
  Na  Na82  1  0.18750000  0.31250000  0.31250000  1
  Na  Na83  1  0.18750000  0.31250000  0.43750000  1
  Na  Na84  1  0.18750000  0.31250000  0.56250000  1
  Na  Na85  1  0.18750000  0.31250000  0.68750000  1
  Na  Na86  1  0.18750000  0.31250000  0.81250000  1
  Na  Na87  1  0.18750000  0.31250000  0.93750000  1
  Na  Na88  1  0.18750000  0.43750000  0.06250000  1
  Na  Na89  1  0.18750000  0.43750000  0.18750000  1
  Na  Na90  1  0.18750000  0.43750000  0.31250000  1
  Na  Na91  1  0.18750000  0.43750000  0.43750000  1
  Na  Na92  1  0.18750000  0.43750000  0.56250000  1
  Na  Na93  1  0.18750000  0.43750000  0.68750000  1
  Na  Na94  1  0.18750000  0.43750000  0.81250000  1
  Na  Na95  1  0.18750000  0.43750000  0.93750000  1
  Na  Na96  1  0.18750000  0.56250000  0.06250000  1
  Na  Na97  1  0.18750000  0.56250000  0.18750000  1
  Na  Na98  1  0.18750000  0.56250000  0.31250000  1
  Na  Na99  1  0.18750000  0.56250000  0.43750000  1
  Na  Na100  1  0.18750000  0.56250000  0.56250000  1
  Na  Na101  1  0.18750000  0.56250000  0.68750000  1
  Na  Na102  1  0.18750000  0.56250000  0.81250000  1
  Na  Na103  1  0.18750000  0.56250000  0.93750000  1
  Na  Na104  1  0.18750000  0.68750000  0.06250000  1
  Na  Na105  1  0.18750000  0.68750000  0.18750000  1
  Na  Na106  1  0.18750000  0.68750000  0.31250000  1
  Na  Na107  1  0.18750000  0.68750000  0.43750000  1
  Na  Na108  1  0.18750000  0.68750000  0.56250000  1
  Na  Na109  1  0.18750000  0.68750000  0.68750000  1
  Na  Na110  1  0.18750000  0.68750000  0.81250000  1
  Na  Na111  1  0.18750000  0.68750000  0.93750000  1
  Na  Na112  1  0.18750000  0.81250000  0.06250000  1
  Na  Na113  1  0.18750000  0.81250000  0.18750000  1
  Na  Na114  1  0.18750000  0.81250000  0.31250000  1
  Na  Na115  1  0.18750000  0.81250000  0.43750000  1
  Na  Na116  1  0.18750000  0.81250000  0.56250000  1
  Na  Na117  1  0.18750000  0.81250000  0.68750000  1
  Na  Na118  1  0.18750000  0.81250000  0.81250000  1
  Na  Na119  1  0.18750000  0.81250000  0.93750000  1
  Na  Na120  1  0.18750000  0.93750000  0.06250000  1
  Na  Na121  1  0.18750000  0.93750000  0.18750000  1
  Na  Na122  1  0.18750000  0.93750000  0.31250000  1
  Na  Na123  1  0.18750000  0.93750000  0.43750000  1
  Na  Na124  1  0.18750000  0.93750000  0.56250000  1
  Na  Na125  1  0.18750000  0.93750000  0.68750000  1
  Na  Na126  1  0.18750000  0.93750000  0.81250000  1
  Na  Na127  1  0.18750000  0.93750000  0.93750000  1
  Na  Na128  1  0.31250000  0.06250000  0.06250000  1
  Na  Na129  1  0.31250000  0.06250000  0.18750000  1
  Na  Na130  1  0.31250000  0.06250000  0.31250000  1
  Na  Na131  1  0.31250000  0.06250000  0.43750000  1
  Na  Na132  1  0.31250000  0.06250000  0.56250000  1
  Na  Na133  1  0.31250000  0.06250000  0.68750000  1
  Na  Na134  1  0.31250000  0.06250000  0.81250000  1
  Na  Na135  1  0.31250000  0.06250000  0.93750000  1
  Na  Na136  1  0.31250000  0.18750000  0.06250000  1
  Na  Na137  1  0.31250000  0.18750000  0.18750000  1
  Na  Na138  1  0.31250000  0.18750000  0.31250000  1
  Na  Na139  1  0.31250000  0.18750000  0.43750000  1
  Na  Na140  1  0.31250000  0.18750000  0.56250000  1
  Na  Na141  1  0.31250000  0.18750000  0.68750000  1
  Na  Na142  1  0.31250000  0.18750000  0.81250000  1
  Na  Na143  1  0.31250000  0.18750000  0.93750000  1
  Na  Na144  1  0.31250000  0.31250000  0.06250000  1
  Na  Na145  1  0.31250000  0.31250000  0.18750000  1
  Na  Na146  1  0.31250000  0.31250000  0.31250000  1
  Na  Na147  1  0.31250000  0.31250000  0.43750000  1
  Na  Na148  1  0.31250000  0.31250000  0.56250000  1
  Na  Na149  1  0.31250000  0.31250000  0.68750000  1
  Na  Na150  1  0.31250000  0.31250000  0.81250000  1
  Na  Na151  1  0.31250000  0.31250000  0.93750000  1
  Na  Na152  1  0.31250000  0.43750000  0.06250000  1
  Na  Na153  1  0.31250000  0.43750000  0.18750000  1
  Na  Na154  1  0.31250000  0.43750000  0.31250000  1
  Na  Na155  1  0.31250000  0.43750000  0.43750000  1
  Na  Na156  1  0.31250000  0.43750000  0.56250000  1
  Na  Na157  1  0.31250000  0.43750000  0.68750000  1
  Na  Na158  1  0.31250000  0.43750000  0.81250000  1
  Na  Na159  1  0.31250000  0.43750000  0.93750000  1
  Na  Na160  1  0.31250000  0.56250000  0.06250000  1
  Na  Na161  1  0.31250000  0.56250000  0.18750000  1
  Na  Na162  1  0.31250000  0.56250000  0.31250000  1
  Na  Na163  1  0.31250000  0.56250000  0.43750000  1
  Na  Na164  1  0.31250000  0.56250000  0.56250000  1
  Na  Na165  1  0.31250000  0.56250000  0.68750000  1
  Na  Na166  1  0.31250000  0.56250000  0.81250000  1
  Na  Na167  1  0.31250000  0.56250000  0.93750000  1
  Na  Na168  1  0.31250000  0.68750000  0.06250000  1
  Na  Na169  1  0.31250000  0.68750000  0.18750000  1
  Na  Na170  1  0.31250000  0.68750000  0.31250000  1
  Na  Na171  1  0.31250000  0.68750000  0.43750000  1
  Na  Na172  1  0.31250000  0.68750000  0.56250000  1
  Na  Na173  1  0.31250000  0.68750000  0.68750000  1
  Na  Na174  1  0.31250000  0.68750000  0.81250000  1
  Na  Na175  1  0.31250000  0.68750000  0.93750000  1
  Na  Na176  1  0.31250000  0.81250000  0.06250000  1
  Na  Na177  1  0.31250000  0.81250000  0.18750000  1
  Na  Na178  1  0.31250000  0.81250000  0.31250000  1
  Na  Na179  1  0.31250000  0.81250000  0.43750000  1
  Na  Na180  1  0.31250000  0.81250000  0.56250000  1
  Na  Na181  1  0.31250000  0.81250000  0.68750000  1
  Na  Na182  1  0.31250000  0.81250000  0.81250000  1
  Na  Na183  1  0.31250000  0.81250000  0.93750000  1
  Na  Na184  1  0.31250000  0.93750000  0.06250000  1
  Na  Na185  1  0.31250000  0.93750000  0.18750000  1
  Na  Na186  1  0.31250000  0.93750000  0.31250000  1
  Na  Na187  1  0.31250000  0.93750000  0.43750000  1
  Na  Na188  1  0.31250000  0.93750000  0.56250000  1
  Na  Na189  1  0.31250000  0.93750000  0.68750000  1
  Na  Na190  1  0.31250000  0.93750000  0.81250000  1
  Na  Na191  1  0.31250000  0.93750000  0.93750000  1
  Na  Na192  1  0.43750000  0.06250000  0.06250000  1
  Na  Na193  1  0.43750000  0.06250000  0.18750000  1
  Na  Na194  1  0.43750000  0.06250000  0.31250000  1
  Na  Na195  1  0.43750000  0.06250000  0.43750000  1
  Na  Na196  1  0.43750000  0.06250000  0.56250000  1
  Na  Na197  1  0.43750000  0.06250000  0.68750000  1
  Na  Na198  1  0.43750000  0.06250000  0.81250000  1
  Na  Na199  1  0.43750000  0.06250000  0.93750000  1
  Na  Na200  1  0.43750000  0.18750000  0.06250000  1
  Na  Na201  1  0.43750000  0.18750000  0.18750000  1
  Na  Na202  1  0.43750000  0.18750000  0.31250000  1
  Na  Na203  1  0.43750000  0.18750000  0.43750000  1
  Na  Na204  1  0.43750000  0.18750000  0.56250000  1
  Na  Na205  1  0.43750000  0.18750000  0.68750000  1
  Na  Na206  1  0.43750000  0.18750000  0.81250000  1
  Na  Na207  1  0.43750000  0.18750000  0.93750000  1
  Na  Na208  1  0.43750000  0.31250000  0.06250000  1
  Na  Na209  1  0.43750000  0.31250000  0.18750000  1
  Na  Na210  1  0.43750000  0.31250000  0.31250000  1
  Na  Na211  1  0.43750000  0.31250000  0.43750000  1
  Na  Na212  1  0.43750000  0.31250000  0.56250000  1
  Na  Na213  1  0.43750000  0.31250000  0.68750000  1
  Na  Na214  1  0.43750000  0.31250000  0.81250000  1
  Na  Na215  1  0.43750000  0.31250000  0.93750000  1
  Na  Na216  1  0.43750000  0.43750000  0.06250000  1
  Na  Na217  1  0.43750000  0.43750000  0.18750000  1
  Na  Na218  1  0.43750000  0.43750000  0.31250000  1
  Na  Na219  1  0.43750000  0.43750000  0.43750000  1
  Na  Na220  1  0.43750000  0.43750000  0.56250000  1
  Na  Na221  1  0.43750000  0.43750000  0.68750000  1
  Na  Na222  1  0.43750000  0.43750000  0.81250000  1
  Na  Na223  1  0.43750000  0.43750000  0.93750000  1
  Na  Na224  1  0.43750000  0.56250000  0.06250000  1
  Na  Na225  1  0.43750000  0.56250000  0.18750000  1
  Na  Na226  1  0.43750000  0.56250000  0.31250000  1
  Na  Na227  1  0.43750000  0.56250000  0.43750000  1
  Na  Na228  1  0.43750000  0.56250000  0.56250000  1
  Na  Na229  1  0.43750000  0.56250000  0.68750000  1
  Na  Na230  1  0.43750000  0.56250000  0.81250000  1
  Na  Na231  1  0.43750000  0.56250000  0.93750000  1
  Na  Na232  1  0.43750000  0.68750000  0.06250000  1
  Na  Na233  1  0.43750000  0.68750000  0.18750000  1
  Na  Na234  1  0.43750000  0.68750000  0.31250000  1
  Na  Na235  1  0.43750000  0.68750000  0.43750000  1
  Na  Na236  1  0.43750000  0.68750000  0.56250000  1
  Na  Na237  1  0.43750000  0.68750000  0.68750000  1
  Na  Na238  1  0.43750000  0.68750000  0.81250000  1
  Na  Na239  1  0.43750000  0.68750000  0.93750000  1
  Na  Na240  1  0.43750000  0.81250000  0.06250000  1
  Na  Na241  1  0.43750000  0.81250000  0.18750000  1
  Na  Na242  1  0.43750000  0.81250000  0.31250000  1
  Na  Na243  1  0.43750000  0.81250000  0.43750000  1
  Na  Na244  1  0.43750000  0.81250000  0.56250000  1
  Na  Na245  1  0.43750000  0.81250000  0.68750000  1
  Na  Na246  1  0.43750000  0.81250000  0.81250000  1
  Na  Na247  1  0.43750000  0.81250000  0.93750000  1
  Na  Na248  1  0.43750000  0.93750000  0.06250000  1
  Na  Na249  1  0.43750000  0.93750000  0.18750000  1
  Na  Na250  1  0.43750000  0.93750000  0.31250000  1
  Na  Na251  1  0.43750000  0.93750000  0.43750000  1
  Na  Na252  1  0.43750000  0.93750000  0.56250000  1
  Na  Na253  1  0.43750000  0.93750000  0.68750000  1
  Na  Na254  1  0.43750000  0.93750000  0.81250000  1
  Na  Na255  1  0.43750000  0.93750000  0.93750000  1
  Na  Na256  1  0.56250000  0.06250000  0.06250000  1
  Na  Na257  1  0.56250000  0.06250000  0.18750000  1
  Na  Na258  1  0.56250000  0.06250000  0.31250000  1
  Na  Na259  1  0.56250000  0.06250000  0.43750000  1
  Na  Na260  1  0.56250000  0.06250000  0.56250000  1
  Na  Na261  1  0.56250000  0.06250000  0.68750000  1
  Na  Na262  1  0.56250000  0.06250000  0.81250000  1
  Na  Na263  1  0.56250000  0.06250000  0.93750000  1
  Na  Na264  1  0.56250000  0.18750000  0.06250000  1
  Na  Na265  1  0.56250000  0.18750000  0.18750000  1
  Na  Na266  1  0.56250000  0.18750000  0.31250000  1
  Na  Na267  1  0.56250000  0.18750000  0.43750000  1
  Na  Na268  1  0.56250000  0.18750000  0.56250000  1
  Na  Na269  1  0.56250000  0.18750000  0.68750000  1
  Na  Na270  1  0.56250000  0.18750000  0.81250000  1
  Na  Na271  1  0.56250000  0.18750000  0.93750000  1
  Na  Na272  1  0.56250000  0.31250000  0.06250000  1
  Na  Na273  1  0.56250000  0.31250000  0.18750000  1
  Na  Na274  1  0.56250000  0.31250000  0.31250000  1
  Na  Na275  1  0.56250000  0.31250000  0.43750000  1
  Na  Na276  1  0.56250000  0.31250000  0.56250000  1
  Na  Na277  1  0.56250000  0.31250000  0.68750000  1
  Na  Na278  1  0.56250000  0.31250000  0.81250000  1
  Na  Na279  1  0.56250000  0.31250000  0.93750000  1
  Na  Na280  1  0.56250000  0.43750000  0.06250000  1
  Na  Na281  1  0.56250000  0.43750000  0.18750000  1
  Na  Na282  1  0.56250000  0.43750000  0.31250000  1
  Na  Na283  1  0.56250000  0.43750000  0.43750000  1
  Na  Na284  1  0.56250000  0.43750000  0.56250000  1
  Na  Na285  1  0.56250000  0.43750000  0.68750000  1
  Na  Na286  1  0.56250000  0.43750000  0.81250000  1
  Na  Na287  1  0.56250000  0.43750000  0.93750000  1
  Na  Na288  1  0.56250000  0.56250000  0.06250000  1
  Na  Na289  1  0.56250000  0.56250000  0.18750000  1
  Na  Na290  1  0.56250000  0.56250000  0.31250000  1
  Na  Na291  1  0.56250000  0.56250000  0.43750000  1
  Na  Na292  1  0.56250000  0.56250000  0.56250000  1
  Na  Na293  1  0.56250000  0.56250000  0.68750000  1
  Na  Na294  1  0.56250000  0.56250000  0.81250000  1
  Na  Na295  1  0.56250000  0.56250000  0.93750000  1
  Na  Na296  1  0.56250000  0.68750000  0.06250000  1
  Na  Na297  1  0.56250000  0.68750000  0.18750000  1
  Na  Na298  1  0.56250000  0.68750000  0.31250000  1
  Na  Na299  1  0.56250000  0.68750000  0.43750000  1
  Na  Na300  1  0.56250000  0.68750000  0.56250000  1
  Na  Na301  1  0.56250000  0.68750000  0.68750000  1
  Na  Na302  1  0.56250000  0.68750000  0.81250000  1
  Na  Na303  1  0.56250000  0.68750000  0.93750000  1
  Na  Na304  1  0.56250000  0.81250000  0.06250000  1
  Na  Na305  1  0.56250000  0.81250000  0.18750000  1
  Na  Na306  1  0.56250000  0.81250000  0.31250000  1
  Na  Na307  1  0.56250000  0.81250000  0.43750000  1
  Na  Na308  1  0.56250000  0.81250000  0.56250000  1
  Na  Na309  1  0.56250000  0.81250000  0.68750000  1
  Na  Na310  1  0.56250000  0.81250000  0.81250000  1
  Na  Na311  1  0.56250000  0.81250000  0.93750000  1
  Na  Na312  1  0.56250000  0.93750000  0.06250000  1
  Na  Na313  1  0.56250000  0.93750000  0.18750000  1
  Na  Na314  1  0.56250000  0.93750000  0.31250000  1
  Na  Na315  1  0.56250000  0.93750000  0.43750000  1
  Na  Na316  1  0.56250000  0.93750000  0.56250000  1
  Na  Na317  1  0.56250000  0.93750000  0.68750000  1
  Na  Na318  1  0.56250000  0.93750000  0.81250000  1
  Na  Na319  1  0.56250000  0.93750000  0.93750000  1
  Na  Na320  1  0.68750000  0.06250000  0.06250000  1
  Na  Na321  1  0.68750000  0.06250000  0.18750000  1
  Na  Na322  1  0.68750000  0.06250000  0.31250000  1
  Na  Na323  1  0.68750000  0.06250000  0.43750000  1
  Na  Na324  1  0.68750000  0.06250000  0.56250000  1
  Na  Na325  1  0.68750000  0.06250000  0.68750000  1
  Na  Na326  1  0.68750000  0.06250000  0.81250000  1
  Na  Na327  1  0.68750000  0.06250000  0.93750000  1
  Na  Na328  1  0.68750000  0.18750000  0.06250000  1
  Na  Na329  1  0.68750000  0.18750000  0.18750000  1
  Na  Na330  1  0.68750000  0.18750000  0.31250000  1
  Na  Na331  1  0.68750000  0.18750000  0.43750000  1
  Na  Na332  1  0.68750000  0.18750000  0.56250000  1
  Na  Na333  1  0.68750000  0.18750000  0.68750000  1
  Na  Na334  1  0.68750000  0.18750000  0.81250000  1
  Na  Na335  1  0.68750000  0.18750000  0.93750000  1
  Na  Na336  1  0.68750000  0.31250000  0.06250000  1
  Na  Na337  1  0.68750000  0.31250000  0.18750000  1
  Na  Na338  1  0.68750000  0.31250000  0.31250000  1
  Na  Na339  1  0.68750000  0.31250000  0.43750000  1
  Na  Na340  1  0.68750000  0.31250000  0.56250000  1
  Na  Na341  1  0.68750000  0.31250000  0.68750000  1
  Na  Na342  1  0.68750000  0.31250000  0.81250000  1
  Na  Na343  1  0.68750000  0.31250000  0.93750000  1
  Na  Na344  1  0.68750000  0.43750000  0.06250000  1
  Na  Na345  1  0.68750000  0.43750000  0.18750000  1
  Na  Na346  1  0.68750000  0.43750000  0.31250000  1
  Na  Na347  1  0.68750000  0.43750000  0.43750000  1
  Na  Na348  1  0.68750000  0.43750000  0.56250000  1
  Na  Na349  1  0.68750000  0.43750000  0.68750000  1
  Na  Na350  1  0.68750000  0.43750000  0.81250000  1
  Na  Na351  1  0.68750000  0.43750000  0.93750000  1
  Na  Na352  1  0.68750000  0.56250000  0.06250000  1
  Na  Na353  1  0.68750000  0.56250000  0.18750000  1
  Na  Na354  1  0.68750000  0.56250000  0.31250000  1
  Na  Na355  1  0.68750000  0.56250000  0.43750000  1
  Na  Na356  1  0.68750000  0.56250000  0.56250000  1
  Na  Na357  1  0.68750000  0.56250000  0.68750000  1
  Na  Na358  1  0.68750000  0.56250000  0.81250000  1
  Na  Na359  1  0.68750000  0.56250000  0.93750000  1
  Na  Na360  1  0.68750000  0.68750000  0.06250000  1
  Na  Na361  1  0.68750000  0.68750000  0.18750000  1
  Na  Na362  1  0.68750000  0.68750000  0.31250000  1
  Na  Na363  1  0.68750000  0.68750000  0.43750000  1
  Na  Na364  1  0.68750000  0.68750000  0.56250000  1
  Na  Na365  1  0.68750000  0.68750000  0.68750000  1
  Na  Na366  1  0.68750000  0.68750000  0.81250000  1
  Na  Na367  1  0.68750000  0.68750000  0.93750000  1
  Na  Na368  1  0.68750000  0.81250000  0.06250000  1
  Na  Na369  1  0.68750000  0.81250000  0.18750000  1
  Na  Na370  1  0.68750000  0.81250000  0.31250000  1
  Na  Na371  1  0.68750000  0.81250000  0.43750000  1
  Na  Na372  1  0.68750000  0.81250000  0.56250000  1
  Na  Na373  1  0.68750000  0.81250000  0.68750000  1
  Na  Na374  1  0.68750000  0.81250000  0.81250000  1
  Na  Na375  1  0.68750000  0.81250000  0.93750000  1
  Na  Na376  1  0.68750000  0.93750000  0.06250000  1
  Na  Na377  1  0.68750000  0.93750000  0.18750000  1
  Na  Na378  1  0.68750000  0.93750000  0.31250000  1
  Na  Na379  1  0.68750000  0.93750000  0.43750000  1
  Na  Na380  1  0.68750000  0.93750000  0.56250000  1
  Na  Na381  1  0.68750000  0.93750000  0.68750000  1
  Na  Na382  1  0.68750000  0.93750000  0.81250000  1
  Na  Na383  1  0.68750000  0.93750000  0.93750000  1
  Na  Na384  1  0.81250000  0.06250000  0.06250000  1
  Na  Na385  1  0.81250000  0.06250000  0.18750000  1
  Na  Na386  1  0.81250000  0.06250000  0.31250000  1
  Na  Na387  1  0.81250000  0.06250000  0.43750000  1
  Na  Na388  1  0.81250000  0.06250000  0.56250000  1
  Na  Na389  1  0.81250000  0.06250000  0.68750000  1
  Na  Na390  1  0.81250000  0.06250000  0.81250000  1
  Na  Na391  1  0.81250000  0.06250000  0.93750000  1
  Na  Na392  1  0.81250000  0.18750000  0.06250000  1
  Na  Na393  1  0.81250000  0.18750000  0.18750000  1
  Na  Na394  1  0.81250000  0.18750000  0.31250000  1
  Na  Na395  1  0.81250000  0.18750000  0.43750000  1
  Na  Na396  1  0.81250000  0.18750000  0.56250000  1
  Na  Na397  1  0.81250000  0.18750000  0.68750000  1
  Na  Na398  1  0.81250000  0.18750000  0.81250000  1
  Na  Na399  1  0.81250000  0.18750000  0.93750000  1
  Na  Na400  1  0.81250000  0.31250000  0.06250000  1
  Na  Na401  1  0.81250000  0.31250000  0.18750000  1
  Na  Na402  1  0.81250000  0.31250000  0.31250000  1
  Na  Na403  1  0.81250000  0.31250000  0.43750000  1
  Na  Na404  1  0.81250000  0.31250000  0.56250000  1
  Na  Na405  1  0.81250000  0.31250000  0.68750000  1
  Na  Na406  1  0.81250000  0.31250000  0.81250000  1
  Na  Na407  1  0.81250000  0.31250000  0.93750000  1
  Na  Na408  1  0.81250000  0.43750000  0.06250000  1
  Na  Na409  1  0.81250000  0.43750000  0.18750000  1
  Na  Na410  1  0.81250000  0.43750000  0.31250000  1
  Na  Na411  1  0.81250000  0.43750000  0.43750000  1
  Na  Na412  1  0.81250000  0.43750000  0.56250000  1
  Na  Na413  1  0.81250000  0.43750000  0.68750000  1
  Na  Na414  1  0.81250000  0.43750000  0.81250000  1
  Na  Na415  1  0.81250000  0.43750000  0.93750000  1
  Na  Na416  1  0.81250000  0.56250000  0.06250000  1
  Na  Na417  1  0.81250000  0.56250000  0.18750000  1
  Na  Na418  1  0.81250000  0.56250000  0.31250000  1
  Na  Na419  1  0.81250000  0.56250000  0.43750000  1
  Na  Na420  1  0.81250000  0.56250000  0.56250000  1
  Na  Na421  1  0.81250000  0.56250000  0.68750000  1
  Na  Na422  1  0.81250000  0.56250000  0.81250000  1
  Na  Na423  1  0.81250000  0.56250000  0.93750000  1
  Na  Na424  1  0.81250000  0.68750000  0.06250000  1
  Na  Na425  1  0.81250000  0.68750000  0.18750000  1
  Na  Na426  1  0.81250000  0.68750000  0.31250000  1
  Na  Na427  1  0.81250000  0.68750000  0.43750000  1
  Na  Na428  1  0.81250000  0.68750000  0.56250000  1
  Na  Na429  1  0.81250000  0.68750000  0.68750000  1
  Na  Na430  1  0.81250000  0.68750000  0.81250000  1
  Na  Na431  1  0.81250000  0.68750000  0.93750000  1
  Na  Na432  1  0.81250000  0.81250000  0.06250000  1
  Na  Na433  1  0.81250000  0.81250000  0.18750000  1
  Na  Na434  1  0.81250000  0.81250000  0.31250000  1
  Na  Na435  1  0.81250000  0.81250000  0.43750000  1
  Na  Na436  1  0.81250000  0.81250000  0.56250000  1
  Na  Na437  1  0.81250000  0.81250000  0.68750000  1
  Na  Na438  1  0.81250000  0.81250000  0.81250000  1
  Na  Na439  1  0.81250000  0.81250000  0.93750000  1
  Na  Na440  1  0.81250000  0.93750000  0.06250000  1
  Na  Na441  1  0.81250000  0.93750000  0.18750000  1
  Na  Na442  1  0.81250000  0.93750000  0.31250000  1
  Na  Na443  1  0.81250000  0.93750000  0.43750000  1
  Na  Na444  1  0.81250000  0.93750000  0.56250000  1
  Na  Na445  1  0.81250000  0.93750000  0.68750000  1
  Na  Na446  1  0.81250000  0.93750000  0.81250000  1
  Na  Na447  1  0.81250000  0.93750000  0.93750000  1
  Na  Na448  1  0.93750000  0.06250000  0.06250000  1
  Na  Na449  1  0.93750000  0.06250000  0.18750000  1
  Na  Na450  1  0.93750000  0.06250000  0.31250000  1
  Na  Na451  1  0.93750000  0.06250000  0.43750000  1
  Na  Na452  1  0.93750000  0.06250000  0.56250000  1
  Na  Na453  1  0.93750000  0.06250000  0.68750000  1
  Na  Na454  1  0.93750000  0.06250000  0.81250000  1
  Na  Na455  1  0.93750000  0.06250000  0.93750000  1
  Na  Na456  1  0.93750000  0.18750000  0.06250000  1
  Na  Na457  1  0.93750000  0.18750000  0.18750000  1
  Na  Na458  1  0.93750000  0.18750000  0.31250000  1
  Na  Na459  1  0.93750000  0.18750000  0.43750000  1
  Na  Na460  1  0.93750000  0.18750000  0.56250000  1
  Na  Na461  1  0.93750000  0.18750000  0.68750000  1
  Na  Na462  1  0.93750000  0.18750000  0.81250000  1
  Na  Na463  1  0.93750000  0.18750000  0.93750000  1
  Na  Na464  1  0.93750000  0.31250000  0.06250000  1
  Na  Na465  1  0.93750000  0.31250000  0.18750000  1
  Na  Na466  1  0.93750000  0.31250000  0.31250000  1
  Na  Na467  1  0.93750000  0.31250000  0.43750000  1
  Na  Na468  1  0.93750000  0.31250000  0.56250000  1
  Na  Na469  1  0.93750000  0.31250000  0.68750000  1
  Na  Na470  1  0.93750000  0.31250000  0.81250000  1
  Na  Na471  1  0.93750000  0.31250000  0.93750000  1
  Na  Na472  1  0.93750000  0.43750000  0.06250000  1
  Na  Na473  1  0.93750000  0.43750000  0.18750000  1
  Na  Na474  1  0.93750000  0.43750000  0.31250000  1
  Na  Na475  1  0.93750000  0.43750000  0.43750000  1
  Na  Na476  1  0.93750000  0.43750000  0.56250000  1
  Na  Na477  1  0.93750000  0.43750000  0.68750000  1
  Na  Na478  1  0.93750000  0.43750000  0.81250000  1
  Na  Na479  1  0.93750000  0.43750000  0.93750000  1
  Na  Na480  1  0.93750000  0.56250000  0.06250000  1
  Na  Na481  1  0.93750000  0.56250000  0.18750000  1
  Na  Na482  1  0.93750000  0.56250000  0.31250000  1
  Na  Na483  1  0.93750000  0.56250000  0.43750000  1
  Na  Na484  1  0.93750000  0.56250000  0.56250000  1
  Na  Na485  1  0.93750000  0.56250000  0.68750000  1
  Na  Na486  1  0.93750000  0.56250000  0.81250000  1
  Na  Na487  1  0.93750000  0.56250000  0.93750000  1
  Na  Na488  1  0.93750000  0.68750000  0.06250000  1
  Na  Na489  1  0.93750000  0.68750000  0.18750000  1
  Na  Na490  1  0.93750000  0.68750000  0.31250000  1
  Na  Na491  1  0.93750000  0.68750000  0.43750000  1
  Na  Na492  1  0.93750000  0.68750000  0.56250000  1
  Na  Na493  1  0.93750000  0.68750000  0.68750000  1
  Na  Na494  1  0.93750000  0.68750000  0.81250000  1
  Na  Na495  1  0.93750000  0.68750000  0.93750000  1
  Na  Na496  1  0.93750000  0.81250000  0.06250000  1
  Na  Na497  1  0.93750000  0.81250000  0.18750000  1
  Na  Na498  1  0.93750000  0.81250000  0.31250000  1
  Na  Na499  1  0.93750000  0.81250000  0.43750000  1
  Na  Na500  1  0.93750000  0.81250000  0.56250000  1
  Na  Na501  1  0.93750000  0.81250000  0.68750000  1
  Na  Na502  1  0.93750000  0.81250000  0.81250000  1
  Na  Na503  1  0.93750000  0.81250000  0.93750000  1
  Na  Na504  1  0.93750000  0.93750000  0.06250000  1
  Na  Na505  1  0.93750000  0.93750000  0.18750000  1
  Na  Na506  1  0.93750000  0.93750000  0.31250000  1
  Na  Na507  1  0.93750000  0.93750000  0.43750000  1
  Na  Na508  1  0.93750000  0.93750000  0.56250000  1
  Na  Na509  1  0.93750000  0.93750000  0.68750000  1
  Na  Na510  1  0.93750000  0.93750000  0.81250000  1
  Na  Na511  1  0.93750000  0.93750000  0.93750000  1
  Na  Na512  1  0.00000000  0.00000000  0.00000000  1
  Na  Na513  1  0.00000000  0.00000000  0.12500000  1
  Na  Na514  1  0.00000000  0.00000000  0.25000000  1
  Na  Na515  1  1.00000000  1.00000000  0.37500000  1
  Na  Na516  1  0.00000000  0.00000000  0.50000000  1
  Na  Na517  1  1.00000000  1.00000000  0.62500000  1
  Na  Na518  1  1.00000000  1.00000000  0.75000000  1
  Na  Na519  1  1.00000000  1.00000000  0.87500000  1
  Na  Na520  1  0.00000000  0.12500000  0.00000000  1
  Na  Na521  1  0.00000000  0.12500000  0.12500000  1
  Na  Na522  1  0.00000000  0.12500000  0.25000000  1
  Na  Na523  1  0.00000000  0.12500000  0.37500000  1
  Na  Na524  1  1.00000000  0.12500000  0.50000000  1
  Na  Na525  1  0.00000000  0.12500000  0.62500000  1
  Na  Na526  1  1.00000000  0.12500000  0.75000000  1
  Na  Na527  1  0.00000000  0.12500000  0.87500000  1
  Na  Na528  1  0.00000000  0.25000000  0.00000000  1
  Na  Na529  1  0.00000000  0.25000000  0.12500000  1
  Na  Na530  1  0.00000000  0.25000000  0.25000000  1
  Na  Na531  1  1.00000000  0.25000000  0.37500000  1
  Na  Na532  1  0.00000000  0.25000000  0.50000000  1
  Na  Na533  1  0.00000000  0.25000000  0.62500000  1
  Na  Na534  1  0.00000000  0.25000000  0.75000000  1
  Na  Na535  1  0.00000000  0.25000000  0.87500000  1
  Na  Na536  1  0.00000000  0.37500000  0.00000000  1
  Na  Na537  1  0.00000000  0.37500000  0.12500000  1
  Na  Na538  1  1.00000000  0.37500000  0.25000000  1
  Na  Na539  1  0.00000000  0.37500000  0.37500000  1
  Na  Na540  1  0.00000000  0.37500000  0.50000000  1
  Na  Na541  1  0.00000000  0.37500000  0.62500000  1
  Na  Na542  1  0.00000000  0.37500000  0.75000000  1
  Na  Na543  1  0.00000000  0.37500000  0.87500000  1
  Na  Na544  1  0.00000000  0.50000000  0.00000000  1
  Na  Na545  1  0.00000000  0.50000000  0.12500000  1
  Na  Na546  1  0.00000000  0.50000000  0.25000000  1
  Na  Na547  1  0.00000000  0.50000000  0.37500000  1
  Na  Na548  1  0.00000000  0.50000000  0.50000000  1
  Na  Na549  1  0.00000000  0.50000000  0.62500000  1
  Na  Na550  1  1.00000000  0.50000000  0.75000000  1
  Na  Na551  1  0.00000000  0.50000000  0.87500000  1
  Na  Na552  1  0.00000000  0.62500000  0.00000000  1
  Na  Na553  1  0.00000000  0.62500000  0.12500000  1
  Na  Na554  1  0.00000000  0.62500000  0.25000000  1
  Na  Na555  1  0.00000000  0.62500000  0.37500000  1
  Na  Na556  1  0.00000000  0.62500000  0.50000000  1
  Na  Na557  1  0.00000000  0.62500000  0.62500000  1
  Na  Na558  1  0.00000000  0.62500000  0.75000000  1
  Na  Na559  1  0.00000000  0.62500000  0.87500000  1
  Na  Na560  1  0.00000000  0.75000000  0.00000000  1
  Na  Na561  1  0.00000000  0.75000000  0.12500000  1
  Na  Na562  1  0.00000000  0.75000000  0.25000000  1
  Na  Na563  1  0.00000000  0.75000000  0.37500000  1
  Na  Na564  1  1.00000000  0.75000000  0.50000000  1
  Na  Na565  1  0.00000000  0.75000000  0.62500000  1
  Na  Na566  1  0.00000000  0.75000000  0.75000000  1
  Na  Na567  1  0.00000000  0.75000000  0.87500000  1
  Na  Na568  1  0.00000000  0.87500000  0.00000000  1
  Na  Na569  1  0.00000000  0.87500000  0.12500000  1
  Na  Na570  1  0.00000000  0.87500000  0.25000000  1
  Na  Na571  1  0.00000000  0.87500000  0.37500000  1
  Na  Na572  1  0.00000000  0.87500000  0.50000000  1
  Na  Na573  1  0.00000000  0.87500000  0.62500000  1
  Na  Na574  1  0.00000000  0.87500000  0.75000000  1
  Na  Na575  1  0.00000000  0.87500000  0.87500000  1
  Na  Na576  1  0.12500000  0.00000000  0.00000000  1
  Na  Na577  1  0.12500000  0.00000000  0.12500000  1
  Na  Na578  1  0.12500000  0.00000000  0.25000000  1
  Na  Na579  1  0.12500000  0.00000000  0.37500000  1
  Na  Na580  1  0.12500000  1.00000000  0.50000000  1
  Na  Na581  1  0.12500000  0.00000000  0.62500000  1
  Na  Na582  1  0.12500000  1.00000000  0.75000000  1
  Na  Na583  1  0.12500000  0.00000000  0.87500000  1
  Na  Na584  1  0.12500000  0.12500000  0.00000000  1
  Na  Na585  1  0.12500000  0.12500000  0.12500000  1
  Na  Na586  1  0.12500000  0.12500000  0.25000000  1
  Na  Na587  1  0.12500000  0.12500000  0.37500000  1
  Na  Na588  1  0.12500000  0.12500000  0.50000000  1
  Na  Na589  1  0.12500000  0.12500000  0.62500000  1
  Na  Na590  1  0.12500000  0.12500000  0.75000000  1
  Na  Na591  1  0.12500000  0.12500000  0.87500000  1
  Na  Na592  1  0.12500000  0.25000000  0.00000000  1
  Na  Na593  1  0.12500000  0.25000000  0.12500000  1
  Na  Na594  1  0.12500000  0.25000000  0.25000000  1
  Na  Na595  1  0.12500000  0.25000000  0.37500000  1
  Na  Na596  1  0.12500000  0.25000000  0.50000000  1
  Na  Na597  1  0.12500000  0.25000000  0.62500000  1
  Na  Na598  1  0.12500000  0.25000000  0.75000000  1
  Na  Na599  1  0.12500000  0.25000000  0.87500000  1
  Na  Na600  1  0.12500000  0.37500000  0.00000000  1
  Na  Na601  1  0.12500000  0.37500000  0.12500000  1
  Na  Na602  1  0.12500000  0.37500000  0.25000000  1
  Na  Na603  1  0.12500000  0.37500000  0.37500000  1
  Na  Na604  1  0.12500000  0.37500000  0.50000000  1
  Na  Na605  1  0.12500000  0.37500000  0.62500000  1
  Na  Na606  1  0.12500000  0.37500000  0.75000000  1
  Na  Na607  1  0.12500000  0.37500000  0.87500000  1
  Na  Na608  1  0.12500000  0.50000000  0.00000000  1
  Na  Na609  1  0.12500000  0.50000000  0.12500000  1
  Na  Na610  1  0.12500000  0.50000000  0.25000000  1
  Na  Na611  1  0.12500000  0.50000000  0.37500000  1
  Na  Na612  1  0.12500000  0.50000000  0.50000000  1
  Na  Na613  1  0.12500000  0.50000000  0.62500000  1
  Na  Na614  1  0.12500000  0.50000000  0.75000000  1
  Na  Na615  1  0.12500000  0.50000000  0.87500000  1
  Na  Na616  1  0.12500000  0.62500000  0.00000000  1
  Na  Na617  1  0.12500000  0.62500000  0.12500000  1
  Na  Na618  1  0.12500000  0.62500000  0.25000000  1
  Na  Na619  1  0.12500000  0.62500000  0.37500000  1
  Na  Na620  1  0.12500000  0.62500000  0.50000000  1
  Na  Na621  1  0.12500000  0.62500000  0.62500000  1
  Na  Na622  1  0.12500000  0.62500000  0.75000000  1
  Na  Na623  1  0.12500000  0.62500000  0.87500000  1
  Na  Na624  1  0.12500000  0.75000000  0.00000000  1
  Na  Na625  1  0.12500000  0.75000000  0.12500000  1
  Na  Na626  1  0.12500000  0.75000000  0.25000000  1
  Na  Na627  1  0.12500000  0.75000000  0.37500000  1
  Na  Na628  1  0.12500000  0.75000000  0.50000000  1
  Na  Na629  1  0.12500000  0.75000000  0.62500000  1
  Na  Na630  1  0.12500000  0.75000000  0.75000000  1
  Na  Na631  1  0.12500000  0.75000000  0.87500000  1
  Na  Na632  1  0.12500000  0.87500000  0.00000000  1
  Na  Na633  1  0.12500000  0.87500000  0.12500000  1
  Na  Na634  1  0.12500000  0.87500000  0.25000000  1
  Na  Na635  1  0.12500000  0.87500000  0.37500000  1
  Na  Na636  1  0.12500000  0.87500000  0.50000000  1
  Na  Na637  1  0.12500000  0.87500000  0.62500000  1
  Na  Na638  1  0.12500000  0.87500000  0.75000000  1
  Na  Na639  1  0.12500000  0.87500000  0.87500000  1
  Na  Na640  1  0.25000000  0.00000000  0.00000000  1
  Na  Na641  1  0.25000000  0.00000000  0.12500000  1
  Na  Na642  1  0.25000000  0.00000000  0.25000000  1
  Na  Na643  1  0.25000000  1.00000000  0.37500000  1
  Na  Na644  1  0.25000000  0.00000000  0.50000000  1
  Na  Na645  1  0.25000000  0.00000000  0.62500000  1
  Na  Na646  1  0.25000000  0.00000000  0.75000000  1
  Na  Na647  1  0.25000000  0.00000000  0.87500000  1
  Na  Na648  1  0.25000000  0.12500000  0.00000000  1
  Na  Na649  1  0.25000000  0.12500000  0.12500000  1
  Na  Na650  1  0.25000000  0.12500000  0.25000000  1
  Na  Na651  1  0.25000000  0.12500000  0.37500000  1
  Na  Na652  1  0.25000000  0.12500000  0.50000000  1
  Na  Na653  1  0.25000000  0.12500000  0.62500000  1
  Na  Na654  1  0.25000000  0.12500000  0.75000000  1
  Na  Na655  1  0.25000000  0.12500000  0.87500000  1
  Na  Na656  1  0.25000000  0.25000000  0.00000000  1
  Na  Na657  1  0.25000000  0.25000000  0.12500000  1
  Na  Na658  1  0.25000000  0.25000000  0.25000000  1
  Na  Na659  1  0.25000000  0.25000000  0.37500000  1
  Na  Na660  1  0.25000000  0.25000000  0.50000000  1
  Na  Na661  1  0.25000000  0.25000000  0.62500000  1
  Na  Na662  1  0.25000000  0.25000000  0.75000000  1
  Na  Na663  1  0.25000000  0.25000000  0.87500000  1
  Na  Na664  1  0.25000000  0.37500000  0.00000000  1
  Na  Na665  1  0.25000000  0.37500000  0.12500000  1
  Na  Na666  1  0.25000000  0.37500000  0.25000000  1
  Na  Na667  1  0.25000000  0.37500000  0.37500000  1
  Na  Na668  1  0.25000000  0.37500000  0.50000000  1
  Na  Na669  1  0.25000000  0.37500000  0.62500000  1
  Na  Na670  1  0.25000000  0.37500000  0.75000000  1
  Na  Na671  1  0.25000000  0.37500000  0.87500000  1
  Na  Na672  1  0.25000000  0.50000000  0.00000000  1
  Na  Na673  1  0.25000000  0.50000000  0.12500000  1
  Na  Na674  1  0.25000000  0.50000000  0.25000000  1
  Na  Na675  1  0.25000000  0.50000000  0.37500000  1
  Na  Na676  1  0.25000000  0.50000000  0.50000000  1
  Na  Na677  1  0.25000000  0.50000000  0.62500000  1
  Na  Na678  1  0.25000000  0.50000000  0.75000000  1
  Na  Na679  1  0.25000000  0.50000000  0.87500000  1
  Na  Na680  1  0.25000000  0.62500000  0.00000000  1
  Na  Na681  1  0.25000000  0.62500000  0.12500000  1
  Na  Na682  1  0.25000000  0.62500000  0.25000000  1
  Na  Na683  1  0.25000000  0.62500000  0.37500000  1
  Na  Na684  1  0.25000000  0.62500000  0.50000000  1
  Na  Na685  1  0.25000000  0.62500000  0.62500000  1
  Na  Na686  1  0.25000000  0.62500000  0.75000000  1
  Na  Na687  1  0.25000000  0.62500000  0.87500000  1
  Na  Na688  1  0.25000000  0.75000000  0.00000000  1
  Na  Na689  1  0.25000000  0.75000000  0.12500000  1
  Na  Na690  1  0.25000000  0.75000000  0.25000000  1
  Na  Na691  1  0.25000000  0.75000000  0.37500000  1
  Na  Na692  1  0.25000000  0.75000000  0.50000000  1
  Na  Na693  1  0.25000000  0.75000000  0.62500000  1
  Na  Na694  1  0.25000000  0.75000000  0.75000000  1
  Na  Na695  1  0.25000000  0.75000000  0.87500000  1
  Na  Na696  1  0.25000000  0.87500000  0.00000000  1
  Na  Na697  1  0.25000000  0.87500000  0.12500000  1
  Na  Na698  1  0.25000000  0.87500000  0.25000000  1
  Na  Na699  1  0.25000000  0.87500000  0.37500000  1
  Na  Na700  1  0.25000000  0.87500000  0.50000000  1
  Na  Na701  1  0.25000000  0.87500000  0.62500000  1
  Na  Na702  1  0.25000000  0.87500000  0.75000000  1
  Na  Na703  1  0.25000000  0.87500000  0.87500000  1
  Na  Na704  1  0.37500000  0.00000000  0.00000000  1
  Na  Na705  1  0.37500000  0.00000000  0.12500000  1
  Na  Na706  1  0.37500000  1.00000000  0.25000000  1
  Na  Na707  1  0.37500000  0.00000000  0.37500000  1
  Na  Na708  1  0.37500000  0.00000000  0.50000000  1
  Na  Na709  1  0.37500000  0.00000000  0.62500000  1
  Na  Na710  1  0.37500000  0.00000000  0.75000000  1
  Na  Na711  1  0.37500000  0.00000000  0.87500000  1
  Na  Na712  1  0.37500000  0.12500000  0.00000000  1
  Na  Na713  1  0.37500000  0.12500000  0.12500000  1
  Na  Na714  1  0.37500000  0.12500000  0.25000000  1
  Na  Na715  1  0.37500000  0.12500000  0.37500000  1
  Na  Na716  1  0.37500000  0.12500000  0.50000000  1
  Na  Na717  1  0.37500000  0.12500000  0.62500000  1
  Na  Na718  1  0.37500000  0.12500000  0.75000000  1
  Na  Na719  1  0.37500000  0.12500000  0.87500000  1
  Na  Na720  1  0.37500000  0.25000000  0.00000000  1
  Na  Na721  1  0.37500000  0.25000000  0.12500000  1
  Na  Na722  1  0.37500000  0.25000000  0.25000000  1
  Na  Na723  1  0.37500000  0.25000000  0.37500000  1
  Na  Na724  1  0.37500000  0.25000000  0.50000000  1
  Na  Na725  1  0.37500000  0.25000000  0.62500000  1
  Na  Na726  1  0.37500000  0.25000000  0.75000000  1
  Na  Na727  1  0.37500000  0.25000000  0.87500000  1
  Na  Na728  1  0.37500000  0.37500000  0.00000000  1
  Na  Na729  1  0.37500000  0.37500000  0.12500000  1
  Na  Na730  1  0.37500000  0.37500000  0.25000000  1
  Na  Na731  1  0.37500000  0.37500000  0.37500000  1
  Na  Na732  1  0.37500000  0.37500000  0.50000000  1
  Na  Na733  1  0.37500000  0.37500000  0.62500000  1
  Na  Na734  1  0.37500000  0.37500000  0.75000000  1
  Na  Na735  1  0.37500000  0.37500000  0.87500000  1
  Na  Na736  1  0.37500000  0.50000000  0.00000000  1
  Na  Na737  1  0.37500000  0.50000000  0.12500000  1
  Na  Na738  1  0.37500000  0.50000000  0.25000000  1
  Na  Na739  1  0.37500000  0.50000000  0.37500000  1
  Na  Na740  1  0.37500000  0.50000000  0.50000000  1
  Na  Na741  1  0.37500000  0.50000000  0.62500000  1
  Na  Na742  1  0.37500000  0.50000000  0.75000000  1
  Na  Na743  1  0.37500000  0.50000000  0.87500000  1
  Na  Na744  1  0.37500000  0.62500000  0.00000000  1
  Na  Na745  1  0.37500000  0.62500000  0.12500000  1
  Na  Na746  1  0.37500000  0.62500000  0.25000000  1
  Na  Na747  1  0.37500000  0.62500000  0.37500000  1
  Na  Na748  1  0.37500000  0.62500000  0.50000000  1
  Na  Na749  1  0.37500000  0.62500000  0.62500000  1
  Na  Na750  1  0.37500000  0.62500000  0.75000000  1
  Na  Na751  1  0.37500000  0.62500000  0.87500000  1
  Na  Na752  1  0.37500000  0.75000000  0.00000000  1
  Na  Na753  1  0.37500000  0.75000000  0.12500000  1
  Na  Na754  1  0.37500000  0.75000000  0.25000000  1
  Na  Na755  1  0.37500000  0.75000000  0.37500000  1
  Na  Na756  1  0.37500000  0.75000000  0.50000000  1
  Na  Na757  1  0.37500000  0.75000000  0.62500000  1
  Na  Na758  1  0.37500000  0.75000000  0.75000000  1
  Na  Na759  1  0.37500000  0.75000000  0.87500000  1
  Na  Na760  1  0.37500000  0.87500000  0.00000000  1
  Na  Na761  1  0.37500000  0.87500000  0.12500000  1
  Na  Na762  1  0.37500000  0.87500000  0.25000000  1
  Na  Na763  1  0.37500000  0.87500000  0.37500000  1
  Na  Na764  1  0.37500000  0.87500000  0.50000000  1
  Na  Na765  1  0.37500000  0.87500000  0.62500000  1
  Na  Na766  1  0.37500000  0.87500000  0.75000000  1
  Na  Na767  1  0.37500000  0.87500000  0.87500000  1
  Na  Na768  1  0.50000000  0.00000000  0.00000000  1
  Na  Na769  1  0.50000000  0.00000000  0.12500000  1
  Na  Na770  1  0.50000000  0.00000000  0.25000000  1
  Na  Na771  1  0.50000000  0.00000000  0.37500000  1
  Na  Na772  1  0.50000000  0.00000000  0.50000000  1
  Na  Na773  1  0.50000000  0.00000000  0.62500000  1
  Na  Na774  1  0.50000000  1.00000000  0.75000000  1
  Na  Na775  1  0.50000000  0.00000000  0.87500000  1
  Na  Na776  1  0.50000000  0.12500000  1.00000000  1
  Na  Na777  1  0.50000000  0.12500000  0.12500000  1
  Na  Na778  1  0.50000000  0.12500000  0.25000000  1
  Na  Na779  1  0.50000000  0.12500000  0.37500000  1
  Na  Na780  1  0.50000000  0.12500000  0.50000000  1
  Na  Na781  1  0.50000000  0.12500000  0.62500000  1
  Na  Na782  1  0.50000000  0.12500000  0.75000000  1
  Na  Na783  1  0.50000000  0.12500000  0.87500000  1
  Na  Na784  1  0.50000000  0.25000000  0.00000000  1
  Na  Na785  1  0.50000000  0.25000000  0.12500000  1
  Na  Na786  1  0.50000000  0.25000000  0.25000000  1
  Na  Na787  1  0.50000000  0.25000000  0.37500000  1
  Na  Na788  1  0.50000000  0.25000000  0.50000000  1
  Na  Na789  1  0.50000000  0.25000000  0.62500000  1
  Na  Na790  1  0.50000000  0.25000000  0.75000000  1
  Na  Na791  1  0.50000000  0.25000000  0.87500000  1
  Na  Na792  1  0.50000000  0.37500000  0.00000000  1
  Na  Na793  1  0.50000000  0.37500000  0.12500000  1
  Na  Na794  1  0.50000000  0.37500000  0.25000000  1
  Na  Na795  1  0.50000000  0.37500000  0.37500000  1
  Na  Na796  1  0.50000000  0.37500000  0.50000000  1
  Na  Na797  1  0.50000000  0.37500000  0.62500000  1
  Na  Na798  1  0.50000000  0.37500000  0.75000000  1
  Na  Na799  1  0.50000000  0.37500000  0.87500000  1
  Na  Na800  1  0.50000000  0.50000000  0.00000000  1
  Na  Na801  1  0.50000000  0.50000000  0.12500000  1
  Na  Na802  1  0.50000000  0.50000000  0.25000000  1
  Na  Na803  1  0.50000000  0.50000000  0.37500000  1
  Na  Na804  1  0.50000000  0.50000000  0.50000000  1
  Na  Na805  1  0.50000000  0.50000000  0.62500000  1
  Na  Na806  1  0.50000000  0.50000000  0.75000000  1
  Na  Na807  1  0.50000000  0.50000000  0.87500000  1
  Na  Na808  1  0.50000000  0.62500000  0.00000000  1
  Na  Na809  1  0.50000000  0.62500000  0.12500000  1
  Na  Na810  1  0.50000000  0.62500000  0.25000000  1
  Na  Na811  1  0.50000000  0.62500000  0.37500000  1
  Na  Na812  1  0.50000000  0.62500000  0.50000000  1
  Na  Na813  1  0.50000000  0.62500000  0.62500000  1
  Na  Na814  1  0.50000000  0.62500000  0.75000000  1
  Na  Na815  1  0.50000000  0.62500000  0.87500000  1
  Na  Na816  1  0.50000000  0.75000000  0.00000000  1
  Na  Na817  1  0.50000000  0.75000000  0.12500000  1
  Na  Na818  1  0.50000000  0.75000000  0.25000000  1
  Na  Na819  1  0.50000000  0.75000000  0.37500000  1
  Na  Na820  1  0.50000000  0.75000000  0.50000000  1
  Na  Na821  1  0.50000000  0.75000000  0.62500000  1
  Na  Na822  1  0.50000000  0.75000000  0.75000000  1
  Na  Na823  1  0.50000000  0.75000000  0.87500000  1
  Na  Na824  1  0.50000000  0.87500000  0.00000000  1
  Na  Na825  1  0.50000000  0.87500000  0.12500000  1
  Na  Na826  1  0.50000000  0.87500000  0.25000000  1
  Na  Na827  1  0.50000000  0.87500000  0.37500000  1
  Na  Na828  1  0.50000000  0.87500000  0.50000000  1
  Na  Na829  1  0.50000000  0.87500000  0.62500000  1
  Na  Na830  1  0.50000000  0.87500000  0.75000000  1
  Na  Na831  1  0.50000000  0.87500000  0.87500000  1
  Na  Na832  1  0.62500000  0.00000000  1.00000000  1
  Na  Na833  1  0.62500000  0.00000000  0.12500000  1
  Na  Na834  1  0.62500000  0.00000000  0.25000000  1
  Na  Na835  1  0.62500000  0.00000000  0.37500000  1
  Na  Na836  1  0.62500000  0.00000000  0.50000000  1
  Na  Na837  1  0.62500000  0.00000000  0.62500000  1
  Na  Na838  1  0.62500000  0.00000000  0.75000000  1
  Na  Na839  1  0.62500000  0.00000000  0.87500000  1
  Na  Na840  1  0.62500000  0.12500000  1.00000000  1
  Na  Na841  1  0.62500000  0.12500000  0.12500000  1
  Na  Na842  1  0.62500000  0.12500000  0.25000000  1
  Na  Na843  1  0.62500000  0.12500000  0.37500000  1
  Na  Na844  1  0.62500000  0.12500000  0.50000000  1
  Na  Na845  1  0.62500000  0.12500000  0.62500000  1
  Na  Na846  1  0.62500000  0.12500000  0.75000000  1
  Na  Na847  1  0.62500000  0.12500000  0.87500000  1
  Na  Na848  1  0.62500000  0.25000000  0.00000000  1
  Na  Na849  1  0.62500000  0.25000000  0.12500000  1
  Na  Na850  1  0.62500000  0.25000000  0.25000000  1
  Na  Na851  1  0.62500000  0.25000000  0.37500000  1
  Na  Na852  1  0.62500000  0.25000000  0.50000000  1
  Na  Na853  1  0.62500000  0.25000000  0.62500000  1
  Na  Na854  1  0.62500000  0.25000000  0.75000000  1
  Na  Na855  1  0.62500000  0.25000000  0.87500000  1
  Na  Na856  1  0.62500000  0.37500000  0.00000000  1
  Na  Na857  1  0.62500000  0.37500000  0.12500000  1
  Na  Na858  1  0.62500000  0.37500000  0.25000000  1
  Na  Na859  1  0.62500000  0.37500000  0.37500000  1
  Na  Na860  1  0.62500000  0.37500000  0.50000000  1
  Na  Na861  1  0.62500000  0.37500000  0.62500000  1
  Na  Na862  1  0.62500000  0.37500000  0.75000000  1
  Na  Na863  1  0.62500000  0.37500000  0.87500000  1
  Na  Na864  1  0.62500000  0.50000000  0.00000000  1
  Na  Na865  1  0.62500000  0.50000000  0.12500000  1
  Na  Na866  1  0.62500000  0.50000000  0.25000000  1
  Na  Na867  1  0.62500000  0.50000000  0.37500000  1
  Na  Na868  1  0.62500000  0.50000000  0.50000000  1
  Na  Na869  1  0.62500000  0.50000000  0.62500000  1
  Na  Na870  1  0.62500000  0.50000000  0.75000000  1
  Na  Na871  1  0.62500000  0.50000000  0.87500000  1
  Na  Na872  1  0.62500000  0.62500000  0.00000000  1
  Na  Na873  1  0.62500000  0.62500000  0.12500000  1
  Na  Na874  1  0.62500000  0.62500000  0.25000000  1
  Na  Na875  1  0.62500000  0.62500000  0.37500000  1
  Na  Na876  1  0.62500000  0.62500000  0.50000000  1
  Na  Na877  1  0.62500000  0.62500000  0.62500000  1
  Na  Na878  1  0.62500000  0.62500000  0.75000000  1
  Na  Na879  1  0.62500000  0.62500000  0.87500000  1
  Na  Na880  1  0.62500000  0.75000000  0.00000000  1
  Na  Na881  1  0.62500000  0.75000000  0.12500000  1
  Na  Na882  1  0.62500000  0.75000000  0.25000000  1
  Na  Na883  1  0.62500000  0.75000000  0.37500000  1
  Na  Na884  1  0.62500000  0.75000000  0.50000000  1
  Na  Na885  1  0.62500000  0.75000000  0.62500000  1
  Na  Na886  1  0.62500000  0.75000000  0.75000000  1
  Na  Na887  1  0.62500000  0.75000000  0.87500000  1
  Na  Na888  1  0.62500000  0.87500000  0.00000000  1
  Na  Na889  1  0.62500000  0.87500000  0.12500000  1
  Na  Na890  1  0.62500000  0.87500000  0.25000000  1
  Na  Na891  1  0.62500000  0.87500000  0.37500000  1
  Na  Na892  1  0.62500000  0.87500000  0.50000000  1
  Na  Na893  1  0.62500000  0.87500000  0.62500000  1
  Na  Na894  1  0.62500000  0.87500000  0.75000000  1
  Na  Na895  1  0.62500000  0.87500000  0.87500000  1
  Na  Na896  1  0.75000000  0.00000000  0.00000000  1
  Na  Na897  1  0.75000000  0.00000000  0.12500000  1
  Na  Na898  1  0.75000000  0.00000000  0.25000000  1
  Na  Na899  1  0.75000000  0.00000000  0.37500000  1
  Na  Na900  1  0.75000000  1.00000000  0.50000000  1
  Na  Na901  1  0.75000000  0.00000000  0.62500000  1
  Na  Na902  1  0.75000000  0.00000000  0.75000000  1
  Na  Na903  1  0.75000000  0.00000000  0.87500000  1
  Na  Na904  1  0.75000000  0.12500000  0.00000000  1
  Na  Na905  1  0.75000000  0.12500000  0.12500000  1
  Na  Na906  1  0.75000000  0.12500000  0.25000000  1
  Na  Na907  1  0.75000000  0.12500000  0.37500000  1
  Na  Na908  1  0.75000000  0.12500000  0.50000000  1
  Na  Na909  1  0.75000000  0.12500000  0.62500000  1
  Na  Na910  1  0.75000000  0.12500000  0.75000000  1
  Na  Na911  1  0.75000000  0.12500000  0.87500000  1
  Na  Na912  1  0.75000000  0.25000000  0.00000000  1
  Na  Na913  1  0.75000000  0.25000000  0.12500000  1
  Na  Na914  1  0.75000000  0.25000000  0.25000000  1
  Na  Na915  1  0.75000000  0.25000000  0.37500000  1
  Na  Na916  1  0.75000000  0.25000000  0.50000000  1
  Na  Na917  1  0.75000000  0.25000000  0.62500000  1
  Na  Na918  1  0.75000000  0.25000000  0.75000000  1
  Na  Na919  1  0.75000000  0.25000000  0.87500000  1
  Na  Na920  1  0.75000000  0.37500000  0.00000000  1
  Na  Na921  1  0.75000000  0.37500000  0.12500000  1
  Na  Na922  1  0.75000000  0.37500000  0.25000000  1
  Na  Na923  1  0.75000000  0.37500000  0.37500000  1
  Na  Na924  1  0.75000000  0.37500000  0.50000000  1
  Na  Na925  1  0.75000000  0.37500000  0.62500000  1
  Na  Na926  1  0.75000000  0.37500000  0.75000000  1
  Na  Na927  1  0.75000000  0.37500000  0.87500000  1
  Na  Na928  1  0.75000000  0.50000000  0.00000000  1
  Na  Na929  1  0.75000000  0.50000000  0.12500000  1
  Na  Na930  1  0.75000000  0.50000000  0.25000000  1
  Na  Na931  1  0.75000000  0.50000000  0.37500000  1
  Na  Na932  1  0.75000000  0.50000000  0.50000000  1
  Na  Na933  1  0.75000000  0.50000000  0.62500000  1
  Na  Na934  1  0.75000000  0.50000000  0.75000000  1
  Na  Na935  1  0.75000000  0.50000000  0.87500000  1
  Na  Na936  1  0.75000000  0.62500000  0.00000000  1
  Na  Na937  1  0.75000000  0.62500000  0.12500000  1
  Na  Na938  1  0.75000000  0.62500000  0.25000000  1
  Na  Na939  1  0.75000000  0.62500000  0.37500000  1
  Na  Na940  1  0.75000000  0.62500000  0.50000000  1
  Na  Na941  1  0.75000000  0.62500000  0.62500000  1
  Na  Na942  1  0.75000000  0.62500000  0.75000000  1
  Na  Na943  1  0.75000000  0.62500000  0.87500000  1
  Na  Na944  1  0.75000000  0.75000000  0.00000000  1
  Na  Na945  1  0.75000000  0.75000000  0.12500000  1
  Na  Na946  1  0.75000000  0.75000000  0.25000000  1
  Na  Na947  1  0.75000000  0.75000000  0.37500000  1
  Na  Na948  1  0.75000000  0.75000000  0.50000000  1
  Na  Na949  1  0.75000000  0.75000000  0.62500000  1
  Na  Na950  1  0.75000000  0.75000000  0.75000000  1
  Na  Na951  1  0.75000000  0.75000000  0.87500000  1
  Na  Na952  1  0.75000000  0.87500000  0.00000000  1
  Na  Na953  1  0.75000000  0.87500000  0.12500000  1
  Na  Na954  1  0.75000000  0.87500000  0.25000000  1
  Na  Na955  1  0.75000000  0.87500000  0.37500000  1
  Na  Na956  1  0.75000000  0.87500000  0.50000000  1
  Na  Na957  1  0.75000000  0.87500000  0.62500000  1
  Na  Na958  1  0.75000000  0.87500000  0.75000000  1
  Na  Na959  1  0.75000000  0.87500000  0.87500000  1
  Na  Na960  1  0.87500000  0.00000000  1.00000000  1
  Na  Na961  1  0.87500000  0.00000000  0.12500000  1
  Na  Na962  1  0.87500000  0.00000000  0.25000000  1
  Na  Na963  1  0.87500000  0.00000000  0.37500000  1
  Na  Na964  1  0.87500000  0.00000000  0.50000000  1
  Na  Na965  1  0.87500000  0.00000000  0.62500000  1
  Na  Na966  1  0.87500000  0.00000000  0.75000000  1
  Na  Na967  1  0.87500000  0.00000000  0.87500000  1
  Na  Na968  1  0.87500000  0.12500000  0.00000000  1
  Na  Na969  1  0.87500000  0.12500000  0.12500000  1
  Na  Na970  1  0.87500000  0.12500000  0.25000000  1
  Na  Na971  1  0.87500000  0.12500000  0.37500000  1
  Na  Na972  1  0.87500000  0.12500000  0.50000000  1
  Na  Na973  1  0.87500000  0.12500000  0.62500000  1
  Na  Na974  1  0.87500000  0.12500000  0.75000000  1
  Na  Na975  1  0.87500000  0.12500000  0.87500000  1
  Na  Na976  1  0.87500000  0.25000000  1.00000000  1
  Na  Na977  1  0.87500000  0.25000000  0.12500000  1
  Na  Na978  1  0.87500000  0.25000000  0.25000000  1
  Na  Na979  1  0.87500000  0.25000000  0.37500000  1
  Na  Na980  1  0.87500000  0.25000000  0.50000000  1
  Na  Na981  1  0.87500000  0.25000000  0.62500000  1
  Na  Na982  1  0.87500000  0.25000000  0.75000000  1
  Na  Na983  1  0.87500000  0.25000000  0.87500000  1
  Na  Na984  1  0.87500000  0.37500000  0.00000000  1
  Na  Na985  1  0.87500000  0.37500000  0.12500000  1
  Na  Na986  1  0.87500000  0.37500000  0.25000000  1
  Na  Na987  1  0.87500000  0.37500000  0.37500000  1
  Na  Na988  1  0.87500000  0.37500000  0.50000000  1
  Na  Na989  1  0.87500000  0.37500000  0.62500000  1
  Na  Na990  1  0.87500000  0.37500000  0.75000000  1
  Na  Na991  1  0.87500000  0.37500000  0.87500000  1
  Na  Na992  1  0.87500000  0.50000000  0.00000000  1
  Na  Na993  1  0.87500000  0.50000000  0.12500000  1
  Na  Na994  1  0.87500000  0.50000000  0.25000000  1
  Na  Na995  1  0.87500000  0.50000000  0.37500000  1
  Na  Na996  1  0.87500000  0.50000000  0.50000000  1
  Na  Na997  1  0.87500000  0.50000000  0.62500000  1
  Na  Na998  1  0.87500000  0.50000000  0.75000000  1
  Na  Na999  1  0.87500000  0.50000000  0.87500000  1
  Na  Na1000  1  0.87500000  0.62500000  0.00000000  1
  Na  Na1001  1  0.87500000  0.62500000  0.12500000  1
  Na  Na1002  1  0.87500000  0.62500000  0.25000000  1
  Na  Na1003  1  0.87500000  0.62500000  0.37500000  1
  Na  Na1004  1  0.87500000  0.62500000  0.50000000  1
  Na  Na1005  1  0.87500000  0.62500000  0.62500000  1
  Na  Na1006  1  0.87500000  0.62500000  0.75000000  1
  Na  Na1007  1  0.87500000  0.62500000  0.87500000  1
  Na  Na1008  1  0.87500000  0.75000000  0.00000000  1
  Na  Na1009  1  0.87500000  0.75000000  0.12500000  1
  Na  Na1010  1  0.87500000  0.75000000  0.25000000  1
  Na  Na1011  1  0.87500000  0.75000000  0.37500000  1
  Na  Na1012  1  0.87500000  0.75000000  0.50000000  1
  Na  Na1013  1  0.87500000  0.75000000  0.62500000  1
  Na  Na1014  1  0.87500000  0.75000000  0.75000000  1
  Na  Na1015  1  0.87500000  0.75000000  0.87500000  1
  Na  Na1016  1  0.87500000  0.87500000  0.00000000  1
  Na  Na1017  1  0.87500000  0.87500000  0.12500000  1
  Na  Na1018  1  0.87500000  0.87500000  0.25000000  1
  Na  Na1019  1  0.87500000  0.87500000  0.37500000  1
  Na  Na1020  1  0.87500000  0.87500000  0.50000000  1
  Na  Na1021  1  0.87500000  0.87500000  0.62500000  1
  Na  Na1022  1  0.87500000  0.87500000  0.75000000  1
  Na  Na1023  1  0.87500000  0.87500000  0.87500000  1
  Na  Na1024  1  0.11120875  0.07629125  0.03125000  1
  Na  Na1025  1  0.11120875  0.07629125  0.15625000  1
  Na  Na1026  1  0.11120875  0.07629125  0.28125000  1
  Na  Na1027  1  0.11120875  0.07629125  0.40625000  1
  Na  Na1028  1  0.11120875  0.07629125  0.53125000  1
  Na  Na1029  1  0.11120875  0.07629125  0.65625000  1
  Na  Na1030  1  0.11120875  0.07629125  0.78125000  1
  Na  Na1031  1  0.11120875  0.07629125  0.90625000  1
  Na  Na1032  1  0.11120875  0.20129125  0.03125000  1
  Na  Na1033  1  0.11120875  0.20129125  0.15625000  1
  Na  Na1034  1  0.11120875  0.20129125  0.28125000  1
  Na  Na1035  1  0.11120875  0.20129125  0.40625000  1
  Na  Na1036  1  0.11120875  0.20129125  0.53125000  1
  Na  Na1037  1  0.11120875  0.20129125  0.65625000  1
  Na  Na1038  1  0.11120875  0.20129125  0.78125000  1
  Na  Na1039  1  0.11120875  0.20129125  0.90625000  1
  Na  Na1040  1  0.11120875  0.32629125  0.03125000  1
  Na  Na1041  1  0.11120875  0.32629125  0.15625000  1
  Na  Na1042  1  0.11120875  0.32629125  0.28125000  1
  Na  Na1043  1  0.11120875  0.32629125  0.40625000  1
  Na  Na1044  1  0.11120875  0.32629125  0.53125000  1
  Na  Na1045  1  0.11120875  0.32629125  0.65625000  1
  Na  Na1046  1  0.11120875  0.32629125  0.78125000  1
  Na  Na1047  1  0.11120875  0.32629125  0.90625000  1
  Na  Na1048  1  0.11120875  0.45129125  0.03125000  1
  Na  Na1049  1  0.11120875  0.45129125  0.15625000  1
  Na  Na1050  1  0.11120875  0.45129125  0.28125000  1
  Na  Na1051  1  0.11120875  0.45129125  0.40625000  1
  Na  Na1052  1  0.11120875  0.45129125  0.53125000  1
  Na  Na1053  1  0.11120875  0.45129125  0.65625000  1
  Na  Na1054  1  0.11120875  0.45129125  0.78125000  1
  Na  Na1055  1  0.11120875  0.45129125  0.90625000  1
  Na  Na1056  1  0.11120875  0.57629125  0.03125000  1
  Na  Na1057  1  0.11120875  0.57629125  0.15625000  1
  Na  Na1058  1  0.11120875  0.57629125  0.28125000  1
  Na  Na1059  1  0.11120875  0.57629125  0.40625000  1
  Na  Na1060  1  0.11120875  0.57629125  0.53125000  1
  Na  Na1061  1  0.11120875  0.57629125  0.65625000  1
  Na  Na1062  1  0.11120875  0.57629125  0.78125000  1
  Na  Na1063  1  0.11120875  0.57629125  0.90625000  1
  Na  Na1064  1  0.11120875  0.70129125  0.03125000  1
  Na  Na1065  1  0.11120875  0.70129125  0.15625000  1
  Na  Na1066  1  0.11120875  0.70129125  0.28125000  1
  Na  Na1067  1  0.11120875  0.70129125  0.40625000  1
  Na  Na1068  1  0.11120875  0.70129125  0.53125000  1
  Na  Na1069  1  0.11120875  0.70129125  0.65625000  1
  Na  Na1070  1  0.11120875  0.70129125  0.78125000  1
  Na  Na1071  1  0.11120875  0.70129125  0.90625000  1
  Na  Na1072  1  0.11120875  0.82629125  0.03125000  1
  Na  Na1073  1  0.11120875  0.82629125  0.15625000  1
  Na  Na1074  1  0.11120875  0.82629125  0.28125000  1
  Na  Na1075  1  0.11120875  0.82629125  0.40625000  1
  Na  Na1076  1  0.11120875  0.82629125  0.53125000  1
  Na  Na1077  1  0.11120875  0.82629125  0.65625000  1
  Na  Na1078  1  0.11120875  0.82629125  0.78125000  1
  Na  Na1079  1  0.11120875  0.82629125  0.90625000  1
  Na  Na1080  1  0.11120875  0.95129125  0.03125000  1
  Na  Na1081  1  0.11120875  0.95129125  0.15625000  1
  Na  Na1082  1  0.11120875  0.95129125  0.28125000  1
  Na  Na1083  1  0.11120875  0.95129125  0.40625000  1
  Na  Na1084  1  0.11120875  0.95129125  0.53125000  1
  Na  Na1085  1  0.11120875  0.95129125  0.65625000  1
  Na  Na1086  1  0.11120875  0.95129125  0.78125000  1
  Na  Na1087  1  0.11120875  0.95129125  0.90625000  1
  Na  Na1088  1  0.23620875  0.07629125  0.03125000  1
  Na  Na1089  1  0.23620875  0.07629125  0.15625000  1
  Na  Na1090  1  0.23620875  0.07629125  0.28125000  1
  Na  Na1091  1  0.23620875  0.07629125  0.40625000  1
  Na  Na1092  1  0.23620875  0.07629125  0.53125000  1
  Na  Na1093  1  0.23620875  0.07629125  0.65625000  1
  Na  Na1094  1  0.23620875  0.07629125  0.78125000  1
  Na  Na1095  1  0.23620875  0.07629125  0.90625000  1
  Na  Na1096  1  0.23620875  0.20129125  0.03125000  1
  Na  Na1097  1  0.23620875  0.20129125  0.15625000  1
  Na  Na1098  1  0.23620875  0.20129125  0.28125000  1
  Na  Na1099  1  0.23620875  0.20129125  0.40625000  1
  Na  Na1100  1  0.23620875  0.20129125  0.53125000  1
  Na  Na1101  1  0.23620875  0.20129125  0.65625000  1
  Na  Na1102  1  0.23620875  0.20129125  0.78125000  1
  Na  Na1103  1  0.23620875  0.20129125  0.90625000  1
  Na  Na1104  1  0.23620875  0.32629125  0.03125000  1
  Na  Na1105  1  0.23620875  0.32629125  0.15625000  1
  Na  Na1106  1  0.23620875  0.32629125  0.28125000  1
  Na  Na1107  1  0.23620875  0.32629125  0.40625000  1
  Na  Na1108  1  0.23620875  0.32629125  0.53125000  1
  Na  Na1109  1  0.23620875  0.32629125  0.65625000  1
  Na  Na1110  1  0.23620875  0.32629125  0.78125000  1
  Na  Na1111  1  0.23620875  0.32629125  0.90625000  1
  Na  Na1112  1  0.23620875  0.45129125  0.03125000  1
  Na  Na1113  1  0.23620875  0.45129125  0.15625000  1
  Na  Na1114  1  0.23620875  0.45129125  0.28125000  1
  Na  Na1115  1  0.23620875  0.45129125  0.40625000  1
  Na  Na1116  1  0.23620875  0.45129125  0.53125000  1
  Na  Na1117  1  0.23620875  0.45129125  0.65625000  1
  Na  Na1118  1  0.23620875  0.45129125  0.78125000  1
  Na  Na1119  1  0.23620875  0.45129125  0.90625000  1
  Na  Na1120  1  0.23620875  0.57629125  0.03125000  1
  Na  Na1121  1  0.23620875  0.57629125  0.15625000  1
  Na  Na1122  1  0.23620875  0.57629125  0.28125000  1
  Na  Na1123  1  0.23620875  0.57629125  0.40625000  1
  Na  Na1124  1  0.23620875  0.57629125  0.53125000  1
  Na  Na1125  1  0.23620875  0.57629125  0.65625000  1
  Na  Na1126  1  0.23620875  0.57629125  0.78125000  1
  Na  Na1127  1  0.23620875  0.57629125  0.90625000  1
  Na  Na1128  1  0.23620875  0.70129125  0.03125000  1
  Na  Na1129  1  0.23620875  0.70129125  0.15625000  1
  Na  Na1130  1  0.23620875  0.70129125  0.28125000  1
  Na  Na1131  1  0.23620875  0.70129125  0.40625000  1
  Na  Na1132  1  0.23620875  0.70129125  0.53125000  1
  Na  Na1133  1  0.23620875  0.70129125  0.65625000  1
  Na  Na1134  1  0.23620875  0.70129125  0.78125000  1
  Na  Na1135  1  0.23620875  0.70129125  0.90625000  1
  Na  Na1136  1  0.23620875  0.82629125  0.03125000  1
  Na  Na1137  1  0.23620875  0.82629125  0.15625000  1
  Na  Na1138  1  0.23620875  0.82629125  0.28125000  1
  Na  Na1139  1  0.23620875  0.82629125  0.40625000  1
  Na  Na1140  1  0.23620875  0.82629125  0.53125000  1
  Na  Na1141  1  0.23620875  0.82629125  0.65625000  1
  Na  Na1142  1  0.23620875  0.82629125  0.78125000  1
  Na  Na1143  1  0.23620875  0.82629125  0.90625000  1
  Na  Na1144  1  0.23620875  0.95129125  0.03125000  1
  Na  Na1145  1  0.23620875  0.95129125  0.15625000  1
  Na  Na1146  1  0.23620875  0.95129125  0.28125000  1
  Na  Na1147  1  0.23620875  0.95129125  0.40625000  1
  Na  Na1148  1  0.23620875  0.95129125  0.53125000  1
  Na  Na1149  1  0.23620875  0.95129125  0.65625000  1
  Na  Na1150  1  0.23620875  0.95129125  0.78125000  1
  Na  Na1151  1  0.23620875  0.95129125  0.90625000  1
  Na  Na1152  1  0.36120875  0.07629125  0.03125000  1
  Na  Na1153  1  0.36120875  0.07629125  0.15625000  1
  Na  Na1154  1  0.36120875  0.07629125  0.28125000  1
  Na  Na1155  1  0.36120875  0.07629125  0.40625000  1
  Na  Na1156  1  0.36120875  0.07629125  0.53125000  1
  Na  Na1157  1  0.36120875  0.07629125  0.65625000  1
  Na  Na1158  1  0.36120875  0.07629125  0.78125000  1
  Na  Na1159  1  0.36120875  0.07629125  0.90625000  1
  Na  Na1160  1  0.36120875  0.20129125  0.03125000  1
  Na  Na1161  1  0.36120875  0.20129125  0.15625000  1
  Na  Na1162  1  0.36120875  0.20129125  0.28125000  1
  Na  Na1163  1  0.36120875  0.20129125  0.40625000  1
  Na  Na1164  1  0.36120875  0.20129125  0.53125000  1
  Na  Na1165  1  0.36120875  0.20129125  0.65625000  1
  Na  Na1166  1  0.36120875  0.20129125  0.78125000  1
  Na  Na1167  1  0.36120875  0.20129125  0.90625000  1
  Na  Na1168  1  0.36120875  0.32629125  0.03125000  1
  Na  Na1169  1  0.36120875  0.32629125  0.15625000  1
  Na  Na1170  1  0.36120875  0.32629125  0.28125000  1
  Na  Na1171  1  0.36120875  0.32629125  0.40625000  1
  Na  Na1172  1  0.36120875  0.32629125  0.53125000  1
  Na  Na1173  1  0.36120875  0.32629125  0.65625000  1
  Na  Na1174  1  0.36120875  0.32629125  0.78125000  1
  Na  Na1175  1  0.36120875  0.32629125  0.90625000  1
  Na  Na1176  1  0.36120875  0.45129125  0.03125000  1
  Na  Na1177  1  0.36120875  0.45129125  0.15625000  1
  Na  Na1178  1  0.36120875  0.45129125  0.28125000  1
  Na  Na1179  1  0.36120875  0.45129125  0.40625000  1
  Na  Na1180  1  0.36120875  0.45129125  0.53125000  1
  Na  Na1181  1  0.36120875  0.45129125  0.65625000  1
  Na  Na1182  1  0.36120875  0.45129125  0.78125000  1
  Na  Na1183  1  0.36120875  0.45129125  0.90625000  1
  Na  Na1184  1  0.36120875  0.57629125  0.03125000  1
  Na  Na1185  1  0.36120875  0.57629125  0.15625000  1
  Na  Na1186  1  0.36120875  0.57629125  0.28125000  1
  Na  Na1187  1  0.36120875  0.57629125  0.40625000  1
  Na  Na1188  1  0.36120875  0.57629125  0.53125000  1
  Na  Na1189  1  0.36120875  0.57629125  0.65625000  1
  Na  Na1190  1  0.36120875  0.57629125  0.78125000  1
  Na  Na1191  1  0.36120875  0.57629125  0.90625000  1
  Na  Na1192  1  0.36120875  0.70129125  0.03125000  1
  Na  Na1193  1  0.36120875  0.70129125  0.15625000  1
  Na  Na1194  1  0.36120875  0.70129125  0.28125000  1
  Na  Na1195  1  0.36120875  0.70129125  0.40625000  1
  Na  Na1196  1  0.36120875  0.70129125  0.53125000  1
  Na  Na1197  1  0.36120875  0.70129125  0.65625000  1
  Na  Na1198  1  0.36120875  0.70129125  0.78125000  1
  Na  Na1199  1  0.36120875  0.70129125  0.90625000  1
  Na  Na1200  1  0.36120875  0.82629125  0.03125000  1
  Na  Na1201  1  0.36120875  0.82629125  0.15625000  1
  Na  Na1202  1  0.36120875  0.82629125  0.28125000  1
  Na  Na1203  1  0.36120875  0.82629125  0.40625000  1
  Na  Na1204  1  0.36120875  0.82629125  0.53125000  1
  Na  Na1205  1  0.36120875  0.82629125  0.65625000  1
  Na  Na1206  1  0.36120875  0.82629125  0.78125000  1
  Na  Na1207  1  0.36120875  0.82629125  0.90625000  1
  Na  Na1208  1  0.36120875  0.95129125  0.03125000  1
  Na  Na1209  1  0.36120875  0.95129125  0.15625000  1
  Na  Na1210  1  0.36120875  0.95129125  0.28125000  1
  Na  Na1211  1  0.36120875  0.95129125  0.40625000  1
  Na  Na1212  1  0.36120875  0.95129125  0.53125000  1
  Na  Na1213  1  0.36120875  0.95129125  0.65625000  1
  Na  Na1214  1  0.36120875  0.95129125  0.78125000  1
  Na  Na1215  1  0.36120875  0.95129125  0.90625000  1
  Na  Na1216  1  0.48620875  0.07629125  0.03125000  1
  Na  Na1217  1  0.48620875  0.07629125  0.15625000  1
  Na  Na1218  1  0.48620875  0.07629125  0.28125000  1
  Na  Na1219  1  0.48620875  0.07629125  0.40625000  1
  Na  Na1220  1  0.48620875  0.07629125  0.53125000  1
  Na  Na1221  1  0.48620875  0.07629125  0.65625000  1
  Na  Na1222  1  0.48620875  0.07629125  0.78125000  1
  Na  Na1223  1  0.48620875  0.07629125  0.90625000  1
  Na  Na1224  1  0.48620875  0.20129125  0.03125000  1
  Na  Na1225  1  0.48620875  0.20129125  0.15625000  1
  Na  Na1226  1  0.48620875  0.20129125  0.28125000  1
  Na  Na1227  1  0.48620875  0.20129125  0.40625000  1
  Na  Na1228  1  0.48620875  0.20129125  0.53125000  1
  Na  Na1229  1  0.48620875  0.20129125  0.65625000  1
  Na  Na1230  1  0.48620875  0.20129125  0.78125000  1
  Na  Na1231  1  0.48620875  0.20129125  0.90625000  1
  Na  Na1232  1  0.48620875  0.32629125  0.03125000  1
  Na  Na1233  1  0.48620875  0.32629125  0.15625000  1
  Na  Na1234  1  0.48620875  0.32629125  0.28125000  1
  Na  Na1235  1  0.48620875  0.32629125  0.40625000  1
  Na  Na1236  1  0.48620875  0.32629125  0.53125000  1
  Na  Na1237  1  0.48620875  0.32629125  0.65625000  1
  Na  Na1238  1  0.48620875  0.32629125  0.78125000  1
  Na  Na1239  1  0.48620875  0.32629125  0.90625000  1
  Na  Na1240  1  0.48620875  0.45129125  0.03125000  1
  Na  Na1241  1  0.48620875  0.45129125  0.15625000  1
  Na  Na1242  1  0.48620875  0.45129125  0.28125000  1
  Na  Na1243  1  0.48620875  0.45129125  0.40625000  1
  Na  Na1244  1  0.48620875  0.45129125  0.53125000  1
  Na  Na1245  1  0.48620875  0.45129125  0.65625000  1
  Na  Na1246  1  0.48620875  0.45129125  0.78125000  1
  Na  Na1247  1  0.48620875  0.45129125  0.90625000  1
  Na  Na1248  1  0.48620875  0.57629125  0.03125000  1
  Na  Na1249  1  0.48620875  0.57629125  0.15625000  1
  Na  Na1250  1  0.48620875  0.57629125  0.28125000  1
  Na  Na1251  1  0.48620875  0.57629125  0.40625000  1
  Na  Na1252  1  0.48620875  0.57629125  0.53125000  1
  Na  Na1253  1  0.48620875  0.57629125  0.65625000  1
  Na  Na1254  1  0.48620875  0.57629125  0.78125000  1
  Na  Na1255  1  0.48620875  0.57629125  0.90625000  1
  Na  Na1256  1  0.48620875  0.70129125  0.03125000  1
  Na  Na1257  1  0.48620875  0.70129125  0.15625000  1
  Na  Na1258  1  0.48620875  0.70129125  0.28125000  1
  Na  Na1259  1  0.48620875  0.70129125  0.40625000  1
  Na  Na1260  1  0.48620875  0.70129125  0.53125000  1
  Na  Na1261  1  0.48620875  0.70129125  0.65625000  1
  Na  Na1262  1  0.48620875  0.70129125  0.78125000  1
  Na  Na1263  1  0.48620875  0.70129125  0.90625000  1
  Na  Na1264  1  0.48620875  0.82629125  0.03125000  1
  Na  Na1265  1  0.48620875  0.82629125  0.15625000  1
  Na  Na1266  1  0.48620875  0.82629125  0.28125000  1
  Na  Na1267  1  0.48620875  0.82629125  0.40625000  1
  Na  Na1268  1  0.48620875  0.82629125  0.53125000  1
  Na  Na1269  1  0.48620875  0.82629125  0.65625000  1
  Na  Na1270  1  0.48620875  0.82629125  0.78125000  1
  Na  Na1271  1  0.48620875  0.82629125  0.90625000  1
  Na  Na1272  1  0.48620875  0.95129125  0.03125000  1
  Na  Na1273  1  0.48620875  0.95129125  0.15625000  1
  Na  Na1274  1  0.48620875  0.95129125  0.28125000  1
  Na  Na1275  1  0.48620875  0.95129125  0.40625000  1
  Na  Na1276  1  0.48620875  0.95129125  0.53125000  1
  Na  Na1277  1  0.48620875  0.95129125  0.65625000  1
  Na  Na1278  1  0.48620875  0.95129125  0.78125000  1
  Na  Na1279  1  0.48620875  0.95129125  0.90625000  1
  Na  Na1280  1  0.61120875  0.07629125  0.03125000  1
  Na  Na1281  1  0.61120875  0.07629125  0.15625000  1
  Na  Na1282  1  0.61120875  0.07629125  0.28125000  1
  Na  Na1283  1  0.61120875  0.07629125  0.40625000  1
  Na  Na1284  1  0.61120875  0.07629125  0.53125000  1
  Na  Na1285  1  0.61120875  0.07629125  0.65625000  1
  Na  Na1286  1  0.61120875  0.07629125  0.78125000  1
  Na  Na1287  1  0.61120875  0.07629125  0.90625000  1
  Na  Na1288  1  0.61120875  0.20129125  0.03125000  1
  Na  Na1289  1  0.61120875  0.20129125  0.15625000  1
  Na  Na1290  1  0.61120875  0.20129125  0.28125000  1
  Na  Na1291  1  0.61120875  0.20129125  0.40625000  1
  Na  Na1292  1  0.61120875  0.20129125  0.53125000  1
  Na  Na1293  1  0.61120875  0.20129125  0.65625000  1
  Na  Na1294  1  0.61120875  0.20129125  0.78125000  1
  Na  Na1295  1  0.61120875  0.20129125  0.90625000  1
  Na  Na1296  1  0.61120875  0.32629125  0.03125000  1
  Na  Na1297  1  0.61120875  0.32629125  0.15625000  1
  Na  Na1298  1  0.61120875  0.32629125  0.28125000  1
  Na  Na1299  1  0.61120875  0.32629125  0.40625000  1
  Na  Na1300  1  0.61120875  0.32629125  0.53125000  1
  Na  Na1301  1  0.61120875  0.32629125  0.65625000  1
  Na  Na1302  1  0.61120875  0.32629125  0.78125000  1
  Na  Na1303  1  0.61120875  0.32629125  0.90625000  1
  Na  Na1304  1  0.61120875  0.45129125  0.03125000  1
  Na  Na1305  1  0.61120875  0.45129125  0.15625000  1
  Na  Na1306  1  0.61120875  0.45129125  0.28125000  1
  Na  Na1307  1  0.61120875  0.45129125  0.40625000  1
  Na  Na1308  1  0.61120875  0.45129125  0.53125000  1
  Na  Na1309  1  0.61120875  0.45129125  0.65625000  1
  Na  Na1310  1  0.61120875  0.45129125  0.78125000  1
  Na  Na1311  1  0.61120875  0.45129125  0.90625000  1
  Na  Na1312  1  0.61120875  0.57629125  0.03125000  1
  Na  Na1313  1  0.61120875  0.57629125  0.15625000  1
  Na  Na1314  1  0.61120875  0.57629125  0.28125000  1
  Na  Na1315  1  0.61120875  0.57629125  0.40625000  1
  Na  Na1316  1  0.61120875  0.57629125  0.53125000  1
  Na  Na1317  1  0.61120875  0.57629125  0.65625000  1
  Na  Na1318  1  0.61120875  0.57629125  0.78125000  1
  Na  Na1319  1  0.61120875  0.57629125  0.90625000  1
  Na  Na1320  1  0.61120875  0.70129125  0.03125000  1
  Na  Na1321  1  0.61120875  0.70129125  0.15625000  1
  Na  Na1322  1  0.61120875  0.70129125  0.28125000  1
  Na  Na1323  1  0.61120875  0.70129125  0.40625000  1
  Na  Na1324  1  0.61120875  0.70129125  0.53125000  1
  Na  Na1325  1  0.61120875  0.70129125  0.65625000  1
  Na  Na1326  1  0.61120875  0.70129125  0.78125000  1
  Na  Na1327  1  0.61120875  0.70129125  0.90625000  1
  Na  Na1328  1  0.61120875  0.82629125  0.03125000  1
  Na  Na1329  1  0.61120875  0.82629125  0.15625000  1
  Na  Na1330  1  0.61120875  0.82629125  0.28125000  1
  Na  Na1331  1  0.61120875  0.82629125  0.40625000  1
  Na  Na1332  1  0.61120875  0.82629125  0.53125000  1
  Na  Na1333  1  0.61120875  0.82629125  0.65625000  1
  Na  Na1334  1  0.61120875  0.82629125  0.78125000  1
  Na  Na1335  1  0.61120875  0.82629125  0.90625000  1
  Na  Na1336  1  0.61120875  0.95129125  0.03125000  1
  Na  Na1337  1  0.61120875  0.95129125  0.15625000  1
  Na  Na1338  1  0.61120875  0.95129125  0.28125000  1
  Na  Na1339  1  0.61120875  0.95129125  0.40625000  1
  Na  Na1340  1  0.61120875  0.95129125  0.53125000  1
  Na  Na1341  1  0.61120875  0.95129125  0.65625000  1
  Na  Na1342  1  0.61120875  0.95129125  0.78125000  1
  Na  Na1343  1  0.61120875  0.95129125  0.90625000  1
  Na  Na1344  1  0.73620875  0.07629125  0.03125000  1
  Na  Na1345  1  0.73620875  0.07629125  0.15625000  1
  Na  Na1346  1  0.73620875  0.07629125  0.28125000  1
  Na  Na1347  1  0.73620875  0.07629125  0.40625000  1
  Na  Na1348  1  0.73620875  0.07629125  0.53125000  1
  Na  Na1349  1  0.73620875  0.07629125  0.65625000  1
  Na  Na1350  1  0.73620875  0.07629125  0.78125000  1
  Na  Na1351  1  0.73620875  0.07629125  0.90625000  1
  Na  Na1352  1  0.73620875  0.20129125  0.03125000  1
  Na  Na1353  1  0.73620875  0.20129125  0.15625000  1
  Na  Na1354  1  0.73620875  0.20129125  0.28125000  1
  Na  Na1355  1  0.73620875  0.20129125  0.40625000  1
  Na  Na1356  1  0.73620875  0.20129125  0.53125000  1
  Na  Na1357  1  0.73620875  0.20129125  0.65625000  1
  Na  Na1358  1  0.73620875  0.20129125  0.78125000  1
  Na  Na1359  1  0.73620875  0.20129125  0.90625000  1
  Na  Na1360  1  0.73620875  0.32629125  0.03125000  1
  Na  Na1361  1  0.73620875  0.32629125  0.15625000  1
  Na  Na1362  1  0.73620875  0.32629125  0.28125000  1
  Na  Na1363  1  0.73620875  0.32629125  0.40625000  1
  Na  Na1364  1  0.73620875  0.32629125  0.53125000  1
  Na  Na1365  1  0.73620875  0.32629125  0.65625000  1
  Na  Na1366  1  0.73620875  0.32629125  0.78125000  1
  Na  Na1367  1  0.73620875  0.32629125  0.90625000  1
  Na  Na1368  1  0.73620875  0.45129125  0.03125000  1
  Na  Na1369  1  0.73620875  0.45129125  0.15625000  1
  Na  Na1370  1  0.73620875  0.45129125  0.28125000  1
  Na  Na1371  1  0.73620875  0.45129125  0.40625000  1
  Na  Na1372  1  0.73620875  0.45129125  0.53125000  1
  Na  Na1373  1  0.73620875  0.45129125  0.65625000  1
  Na  Na1374  1  0.73620875  0.45129125  0.78125000  1
  Na  Na1375  1  0.73620875  0.45129125  0.90625000  1
  Na  Na1376  1  0.73620875  0.57629125  0.03125000  1
  Na  Na1377  1  0.73620875  0.57629125  0.15625000  1
  Na  Na1378  1  0.73620875  0.57629125  0.28125000  1
  Na  Na1379  1  0.73620875  0.57629125  0.40625000  1
  Na  Na1380  1  0.73620875  0.57629125  0.53125000  1
  Na  Na1381  1  0.73620875  0.57629125  0.65625000  1
  Na  Na1382  1  0.73620875  0.57629125  0.78125000  1
  Na  Na1383  1  0.73620875  0.57629125  0.90625000  1
  Na  Na1384  1  0.73620875  0.70129125  0.03125000  1
  Na  Na1385  1  0.73620875  0.70129125  0.15625000  1
  Na  Na1386  1  0.73620875  0.70129125  0.28125000  1
  Na  Na1387  1  0.73620875  0.70129125  0.40625000  1
  Na  Na1388  1  0.73620875  0.70129125  0.53125000  1
  Na  Na1389  1  0.73620875  0.70129125  0.65625000  1
  Na  Na1390  1  0.73620875  0.70129125  0.78125000  1
  Na  Na1391  1  0.73620875  0.70129125  0.90625000  1
  Na  Na1392  1  0.73620875  0.82629125  0.03125000  1
  Na  Na1393  1  0.73620875  0.82629125  0.15625000  1
  Na  Na1394  1  0.73620875  0.82629125  0.28125000  1
  Na  Na1395  1  0.73620875  0.82629125  0.40625000  1
  Na  Na1396  1  0.73620875  0.82629125  0.53125000  1
  Na  Na1397  1  0.73620875  0.82629125  0.65625000  1
  Na  Na1398  1  0.73620875  0.82629125  0.78125000  1
  Na  Na1399  1  0.73620875  0.82629125  0.90625000  1
  Na  Na1400  1  0.73620875  0.95129125  0.03125000  1
  Na  Na1401  1  0.73620875  0.95129125  0.15625000  1
  Na  Na1402  1  0.73620875  0.95129125  0.28125000  1
  Na  Na1403  1  0.73620875  0.95129125  0.40625000  1
  Na  Na1404  1  0.73620875  0.95129125  0.53125000  1
  Na  Na1405  1  0.73620875  0.95129125  0.65625000  1
  Na  Na1406  1  0.73620875  0.95129125  0.78125000  1
  Na  Na1407  1  0.73620875  0.95129125  0.90625000  1
  Na  Na1408  1  0.86120875  0.07629125  0.03125000  1
  Na  Na1409  1  0.86120875  0.07629125  0.15625000  1
  Na  Na1410  1  0.86120875  0.07629125  0.28125000  1
  Na  Na1411  1  0.86120875  0.07629125  0.40625000  1
  Na  Na1412  1  0.86120875  0.07629125  0.53125000  1
  Na  Na1413  1  0.86120875  0.07629125  0.65625000  1
  Na  Na1414  1  0.86120875  0.07629125  0.78125000  1
  Na  Na1415  1  0.86120875  0.07629125  0.90625000  1
  Na  Na1416  1  0.86120875  0.20129125  0.03125000  1
  Na  Na1417  1  0.86120875  0.20129125  0.15625000  1
  Na  Na1418  1  0.86120875  0.20129125  0.28125000  1
  Na  Na1419  1  0.86120875  0.20129125  0.40625000  1
  Na  Na1420  1  0.86120875  0.20129125  0.53125000  1
  Na  Na1421  1  0.86120875  0.20129125  0.65625000  1
  Na  Na1422  1  0.86120875  0.20129125  0.78125000  1
  Na  Na1423  1  0.86120875  0.20129125  0.90625000  1
  Na  Na1424  1  0.86120875  0.32629125  0.03125000  1
  Na  Na1425  1  0.86120875  0.32629125  0.15625000  1
  Na  Na1426  1  0.86120875  0.32629125  0.28125000  1
  Na  Na1427  1  0.86120875  0.32629125  0.40625000  1
  Na  Na1428  1  0.86120875  0.32629125  0.53125000  1
  Na  Na1429  1  0.86120875  0.32629125  0.65625000  1
  Na  Na1430  1  0.86120875  0.32629125  0.78125000  1
  Na  Na1431  1  0.86120875  0.32629125  0.90625000  1
  Na  Na1432  1  0.86120875  0.45129125  0.03125000  1
  Na  Na1433  1  0.86120875  0.45129125  0.15625000  1
  Na  Na1434  1  0.86120875  0.45129125  0.28125000  1
  Na  Na1435  1  0.86120875  0.45129125  0.40625000  1
  Na  Na1436  1  0.86120875  0.45129125  0.53125000  1
  Na  Na1437  1  0.86120875  0.45129125  0.65625000  1
  Na  Na1438  1  0.86120875  0.45129125  0.78125000  1
  Na  Na1439  1  0.86120875  0.45129125  0.90625000  1
  Na  Na1440  1  0.86120875  0.57629125  0.03125000  1
  Na  Na1441  1  0.86120875  0.57629125  0.15625000  1
  Na  Na1442  1  0.86120875  0.57629125  0.28125000  1
  Na  Na1443  1  0.86120875  0.57629125  0.40625000  1
  Na  Na1444  1  0.86120875  0.57629125  0.53125000  1
  Na  Na1445  1  0.86120875  0.57629125  0.65625000  1
  Na  Na1446  1  0.86120875  0.57629125  0.78125000  1
  Na  Na1447  1  0.86120875  0.57629125  0.90625000  1
  Na  Na1448  1  0.86120875  0.70129125  0.03125000  1
  Na  Na1449  1  0.86120875  0.70129125  0.15625000  1
  Na  Na1450  1  0.86120875  0.70129125  0.28125000  1
  Na  Na1451  1  0.86120875  0.70129125  0.40625000  1
  Na  Na1452  1  0.86120875  0.70129125  0.53125000  1
  Na  Na1453  1  0.86120875  0.70129125  0.65625000  1
  Na  Na1454  1  0.86120875  0.70129125  0.78125000  1
  Na  Na1455  1  0.86120875  0.70129125  0.90625000  1
  Na  Na1456  1  0.86120875  0.82629125  0.03125000  1
  Na  Na1457  1  0.86120875  0.82629125  0.15625000  1
  Na  Na1458  1  0.86120875  0.82629125  0.28125000  1
  Na  Na1459  1  0.86120875  0.82629125  0.40625000  1
  Na  Na1460  1  0.86120875  0.82629125  0.53125000  1
  Na  Na1461  1  0.86120875  0.82629125  0.65625000  1
  Na  Na1462  1  0.86120875  0.82629125  0.78125000  1
  Na  Na1463  1  0.86120875  0.82629125  0.90625000  1
  Na  Na1464  1  0.86120875  0.95129125  0.03125000  1
  Na  Na1465  1  0.86120875  0.95129125  0.15625000  1
  Na  Na1466  1  0.86120875  0.95129125  0.28125000  1
  Na  Na1467  1  0.86120875  0.95129125  0.40625000  1
  Na  Na1468  1  0.86120875  0.95129125  0.53125000  1
  Na  Na1469  1  0.86120875  0.95129125  0.65625000  1
  Na  Na1470  1  0.86120875  0.95129125  0.78125000  1
  Na  Na1471  1  0.86120875  0.95129125  0.90625000  1
  Na  Na1472  1  0.98620875  0.07629125  0.03125000  1
  Na  Na1473  1  0.98620875  0.07629125  0.15625000  1
  Na  Na1474  1  0.98620875  0.07629125  0.28125000  1
  Na  Na1475  1  0.98620875  0.07629125  0.40625000  1
  Na  Na1476  1  0.98620875  0.07629125  0.53125000  1
  Na  Na1477  1  0.98620875  0.07629125  0.65625000  1
  Na  Na1478  1  0.98620875  0.07629125  0.78125000  1
  Na  Na1479  1  0.98620875  0.07629125  0.90625000  1
  Na  Na1480  1  0.98620875  0.20129125  0.03125000  1
  Na  Na1481  1  0.98620875  0.20129125  0.15625000  1
  Na  Na1482  1  0.98620875  0.20129125  0.28125000  1
  Na  Na1483  1  0.98620875  0.20129125  0.40625000  1
  Na  Na1484  1  0.98620875  0.20129125  0.53125000  1
  Na  Na1485  1  0.98620875  0.20129125  0.65625000  1
  Na  Na1486  1  0.98620875  0.20129125  0.78125000  1
  Na  Na1487  1  0.98620875  0.20129125  0.90625000  1
  Na  Na1488  1  0.98620875  0.32629125  0.03125000  1
  Na  Na1489  1  0.98620875  0.32629125  0.15625000  1
  Na  Na1490  1  0.98620875  0.32629125  0.28125000  1
  Na  Na1491  1  0.98620875  0.32629125  0.40625000  1
  Na  Na1492  1  0.98620875  0.32629125  0.53125000  1
  Na  Na1493  1  0.98620875  0.32629125  0.65625000  1
  Na  Na1494  1  0.98620875  0.32629125  0.78125000  1
  Na  Na1495  1  0.98620875  0.32629125  0.90625000  1
  Na  Na1496  1  0.98620875  0.45129125  0.03125000  1
  Na  Na1497  1  0.98620875  0.45129125  0.15625000  1
  Na  Na1498  1  0.98620875  0.45129125  0.28125000  1
  Na  Na1499  1  0.98620875  0.45129125  0.40625000  1
  Na  Na1500  1  0.98620875  0.45129125  0.53125000  1
  Na  Na1501  1  0.98620875  0.45129125  0.65625000  1
  Na  Na1502  1  0.98620875  0.45129125  0.78125000  1
  Na  Na1503  1  0.98620875  0.45129125  0.90625000  1
  Na  Na1504  1  0.98620875  0.57629125  0.03125000  1
  Na  Na1505  1  0.98620875  0.57629125  0.15625000  1
  Na  Na1506  1  0.98620875  0.57629125  0.28125000  1
  Na  Na1507  1  0.98620875  0.57629125  0.40625000  1
  Na  Na1508  1  0.98620875  0.57629125  0.53125000  1
  Na  Na1509  1  0.98620875  0.57629125  0.65625000  1
  Na  Na1510  1  0.98620875  0.57629125  0.78125000  1
  Na  Na1511  1  0.98620875  0.57629125  0.90625000  1
  Na  Na1512  1  0.98620875  0.70129125  0.03125000  1
  Na  Na1513  1  0.98620875  0.70129125  0.15625000  1
  Na  Na1514  1  0.98620875  0.70129125  0.28125000  1
  Na  Na1515  1  0.98620875  0.70129125  0.40625000  1
  Na  Na1516  1  0.98620875  0.70129125  0.53125000  1
  Na  Na1517  1  0.98620875  0.70129125  0.65625000  1
  Na  Na1518  1  0.98620875  0.70129125  0.78125000  1
  Na  Na1519  1  0.98620875  0.70129125  0.90625000  1
  Na  Na1520  1  0.98620875  0.82629125  0.03125000  1
  Na  Na1521  1  0.98620875  0.82629125  0.15625000  1
  Na  Na1522  1  0.98620875  0.82629125  0.28125000  1
  Na  Na1523  1  0.98620875  0.82629125  0.40625000  1
  Na  Na1524  1  0.98620875  0.82629125  0.53125000  1
  Na  Na1525  1  0.98620875  0.82629125  0.65625000  1
  Na  Na1526  1  0.98620875  0.82629125  0.78125000  1
  Na  Na1527  1  0.98620875  0.82629125  0.90625000  1
  Na  Na1528  1  0.98620875  0.95129125  0.03125000  1
  Na  Na1529  1  0.98620875  0.95129125  0.15625000  1
  Na  Na1530  1  0.98620875  0.95129125  0.28125000  1
  Na  Na1531  1  0.98620875  0.95129125  0.40625000  1
  Na  Na1532  1  0.98620875  0.95129125  0.53125000  1
  Na  Na1533  1  0.98620875  0.95129125  0.65625000  1
  Na  Na1534  1  0.98620875  0.95129125  0.78125000  1
  Na  Na1535  1  0.98620875  0.95129125  0.90625000  1
  Na  Na1536  1  0.07629125  0.03125000  0.11120875  1
  Na  Na1537  1  0.07629125  0.03125000  0.23620875  1
  Na  Na1538  1  0.07629125  0.03125000  0.36120875  1
  Na  Na1539  1  0.07629125  0.03125000  0.48620875  1
  Na  Na1540  1  0.07629125  0.03125000  0.61120875  1
  Na  Na1541  1  0.07629125  0.03125000  0.73620875  1
  Na  Na1542  1  0.07629125  0.03125000  0.86120875  1
  Na  Na1543  1  0.07629125  0.03125000  0.98620875  1
  Na  Na1544  1  0.07629125  0.15625000  0.11120875  1
  Na  Na1545  1  0.07629125  0.15625000  0.23620875  1
  Na  Na1546  1  0.07629125  0.15625000  0.36120875  1
  Na  Na1547  1  0.07629125  0.15625000  0.48620875  1
  Na  Na1548  1  0.07629125  0.15625000  0.61120875  1
  Na  Na1549  1  0.07629125  0.15625000  0.73620875  1
  Na  Na1550  1  0.07629125  0.15625000  0.86120875  1
  Na  Na1551  1  0.07629125  0.15625000  0.98620875  1
  Na  Na1552  1  0.07629125  0.28125000  0.11120875  1
  Na  Na1553  1  0.07629125  0.28125000  0.23620875  1
  Na  Na1554  1  0.07629125  0.28125000  0.36120875  1
  Na  Na1555  1  0.07629125  0.28125000  0.48620875  1
  Na  Na1556  1  0.07629125  0.28125000  0.61120875  1
  Na  Na1557  1  0.07629125  0.28125000  0.73620875  1
  Na  Na1558  1  0.07629125  0.28125000  0.86120875  1
  Na  Na1559  1  0.07629125  0.28125000  0.98620875  1
  Na  Na1560  1  0.07629125  0.40625000  0.11120875  1
  Na  Na1561  1  0.07629125  0.40625000  0.23620875  1
  Na  Na1562  1  0.07629125  0.40625000  0.36120875  1
  Na  Na1563  1  0.07629125  0.40625000  0.48620875  1
  Na  Na1564  1  0.07629125  0.40625000  0.61120875  1
  Na  Na1565  1  0.07629125  0.40625000  0.73620875  1
  Na  Na1566  1  0.07629125  0.40625000  0.86120875  1
  Na  Na1567  1  0.07629125  0.40625000  0.98620875  1
  Na  Na1568  1  0.07629125  0.53125000  0.11120875  1
  Na  Na1569  1  0.07629125  0.53125000  0.23620875  1
  Na  Na1570  1  0.07629125  0.53125000  0.36120875  1
  Na  Na1571  1  0.07629125  0.53125000  0.48620875  1
  Na  Na1572  1  0.07629125  0.53125000  0.61120875  1
  Na  Na1573  1  0.07629125  0.53125000  0.73620875  1
  Na  Na1574  1  0.07629125  0.53125000  0.86120875  1
  Na  Na1575  1  0.07629125  0.53125000  0.98620875  1
  Na  Na1576  1  0.07629125  0.65625000  0.11120875  1
  Na  Na1577  1  0.07629125  0.65625000  0.23620875  1
  Na  Na1578  1  0.07629125  0.65625000  0.36120875  1
  Na  Na1579  1  0.07629125  0.65625000  0.48620875  1
  Na  Na1580  1  0.07629125  0.65625000  0.61120875  1
  Na  Na1581  1  0.07629125  0.65625000  0.73620875  1
  Na  Na1582  1  0.07629125  0.65625000  0.86120875  1
  Na  Na1583  1  0.07629125  0.65625000  0.98620875  1
  Na  Na1584  1  0.07629125  0.78125000  0.11120875  1
  Na  Na1585  1  0.07629125  0.78125000  0.23620875  1
  Na  Na1586  1  0.07629125  0.78125000  0.36120875  1
  Na  Na1587  1  0.07629125  0.78125000  0.48620875  1
  Na  Na1588  1  0.07629125  0.78125000  0.61120875  1
  Na  Na1589  1  0.07629125  0.78125000  0.73620875  1
  Na  Na1590  1  0.07629125  0.78125000  0.86120875  1
  Na  Na1591  1  0.07629125  0.78125000  0.98620875  1
  Na  Na1592  1  0.07629125  0.90625000  0.11120875  1
  Na  Na1593  1  0.07629125  0.90625000  0.23620875  1
  Na  Na1594  1  0.07629125  0.90625000  0.36120875  1
  Na  Na1595  1  0.07629125  0.90625000  0.48620875  1
  Na  Na1596  1  0.07629125  0.90625000  0.61120875  1
  Na  Na1597  1  0.07629125  0.90625000  0.73620875  1
  Na  Na1598  1  0.07629125  0.90625000  0.86120875  1
  Na  Na1599  1  0.07629125  0.90625000  0.98620875  1
  Na  Na1600  1  0.20129125  0.03125000  0.11120875  1
  Na  Na1601  1  0.20129125  0.03125000  0.23620875  1
  Na  Na1602  1  0.20129125  0.03125000  0.36120875  1
  Na  Na1603  1  0.20129125  0.03125000  0.48620875  1
  Na  Na1604  1  0.20129125  0.03125000  0.61120875  1
  Na  Na1605  1  0.20129125  0.03125000  0.73620875  1
  Na  Na1606  1  0.20129125  0.03125000  0.86120875  1
  Na  Na1607  1  0.20129125  0.03125000  0.98620875  1
  Na  Na1608  1  0.20129125  0.15625000  0.11120875  1
  Na  Na1609  1  0.20129125  0.15625000  0.23620875  1
  Na  Na1610  1  0.20129125  0.15625000  0.36120875  1
  Na  Na1611  1  0.20129125  0.15625000  0.48620875  1
  Na  Na1612  1  0.20129125  0.15625000  0.61120875  1
  Na  Na1613  1  0.20129125  0.15625000  0.73620875  1
  Na  Na1614  1  0.20129125  0.15625000  0.86120875  1
  Na  Na1615  1  0.20129125  0.15625000  0.98620875  1
  Na  Na1616  1  0.20129125  0.28125000  0.11120875  1
  Na  Na1617  1  0.20129125  0.28125000  0.23620875  1
  Na  Na1618  1  0.20129125  0.28125000  0.36120875  1
  Na  Na1619  1  0.20129125  0.28125000  0.48620875  1
  Na  Na1620  1  0.20129125  0.28125000  0.61120875  1
  Na  Na1621  1  0.20129125  0.28125000  0.73620875  1
  Na  Na1622  1  0.20129125  0.28125000  0.86120875  1
  Na  Na1623  1  0.20129125  0.28125000  0.98620875  1
  Na  Na1624  1  0.20129125  0.40625000  0.11120875  1
  Na  Na1625  1  0.20129125  0.40625000  0.23620875  1
  Na  Na1626  1  0.20129125  0.40625000  0.36120875  1
  Na  Na1627  1  0.20129125  0.40625000  0.48620875  1
  Na  Na1628  1  0.20129125  0.40625000  0.61120875  1
  Na  Na1629  1  0.20129125  0.40625000  0.73620875  1
  Na  Na1630  1  0.20129125  0.40625000  0.86120875  1
  Na  Na1631  1  0.20129125  0.40625000  0.98620875  1
  Na  Na1632  1  0.20129125  0.53125000  0.11120875  1
  Na  Na1633  1  0.20129125  0.53125000  0.23620875  1
  Na  Na1634  1  0.20129125  0.53125000  0.36120875  1
  Na  Na1635  1  0.20129125  0.53125000  0.48620875  1
  Na  Na1636  1  0.20129125  0.53125000  0.61120875  1
  Na  Na1637  1  0.20129125  0.53125000  0.73620875  1
  Na  Na1638  1  0.20129125  0.53125000  0.86120875  1
  Na  Na1639  1  0.20129125  0.53125000  0.98620875  1
  Na  Na1640  1  0.20129125  0.65625000  0.11120875  1
  Na  Na1641  1  0.20129125  0.65625000  0.23620875  1
  Na  Na1642  1  0.20129125  0.65625000  0.36120875  1
  Na  Na1643  1  0.20129125  0.65625000  0.48620875  1
  Na  Na1644  1  0.20129125  0.65625000  0.61120875  1
  Na  Na1645  1  0.20129125  0.65625000  0.73620875  1
  Na  Na1646  1  0.20129125  0.65625000  0.86120875  1
  Na  Na1647  1  0.20129125  0.65625000  0.98620875  1
  Na  Na1648  1  0.20129125  0.78125000  0.11120875  1
  Na  Na1649  1  0.20129125  0.78125000  0.23620875  1
  Na  Na1650  1  0.20129125  0.78125000  0.36120875  1
  Na  Na1651  1  0.20129125  0.78125000  0.48620875  1
  Na  Na1652  1  0.20129125  0.78125000  0.61120875  1
  Na  Na1653  1  0.20129125  0.78125000  0.73620875  1
  Na  Na1654  1  0.20129125  0.78125000  0.86120875  1
  Na  Na1655  1  0.20129125  0.78125000  0.98620875  1
  Na  Na1656  1  0.20129125  0.90625000  0.11120875  1
  Na  Na1657  1  0.20129125  0.90625000  0.23620875  1
  Na  Na1658  1  0.20129125  0.90625000  0.36120875  1
  Na  Na1659  1  0.20129125  0.90625000  0.48620875  1
  Na  Na1660  1  0.20129125  0.90625000  0.61120875  1
  Na  Na1661  1  0.20129125  0.90625000  0.73620875  1
  Na  Na1662  1  0.20129125  0.90625000  0.86120875  1
  Na  Na1663  1  0.20129125  0.90625000  0.98620875  1
  Na  Na1664  1  0.32629125  0.03125000  0.11120875  1
  Na  Na1665  1  0.32629125  0.03125000  0.23620875  1
  Na  Na1666  1  0.32629125  0.03125000  0.36120875  1
  Na  Na1667  1  0.32629125  0.03125000  0.48620875  1
  Na  Na1668  1  0.32629125  0.03125000  0.61120875  1
  Na  Na1669  1  0.32629125  0.03125000  0.73620875  1
  Na  Na1670  1  0.32629125  0.03125000  0.86120875  1
  Na  Na1671  1  0.32629125  0.03125000  0.98620875  1
  Na  Na1672  1  0.32629125  0.15625000  0.11120875  1
  Na  Na1673  1  0.32629125  0.15625000  0.23620875  1
  Na  Na1674  1  0.32629125  0.15625000  0.36120875  1
  Na  Na1675  1  0.32629125  0.15625000  0.48620875  1
  Na  Na1676  1  0.32629125  0.15625000  0.61120875  1
  Na  Na1677  1  0.32629125  0.15625000  0.73620875  1
  Na  Na1678  1  0.32629125  0.15625000  0.86120875  1
  Na  Na1679  1  0.32629125  0.15625000  0.98620875  1
  Na  Na1680  1  0.32629125  0.28125000  0.11120875  1
  Na  Na1681  1  0.32629125  0.28125000  0.23620875  1
  Na  Na1682  1  0.32629125  0.28125000  0.36120875  1
  Na  Na1683  1  0.32629125  0.28125000  0.48620875  1
  Na  Na1684  1  0.32629125  0.28125000  0.61120875  1
  Na  Na1685  1  0.32629125  0.28125000  0.73620875  1
  Na  Na1686  1  0.32629125  0.28125000  0.86120875  1
  Na  Na1687  1  0.32629125  0.28125000  0.98620875  1
  Na  Na1688  1  0.32629125  0.40625000  0.11120875  1
  Na  Na1689  1  0.32629125  0.40625000  0.23620875  1
  Na  Na1690  1  0.32629125  0.40625000  0.36120875  1
  Na  Na1691  1  0.32629125  0.40625000  0.48620875  1
  Na  Na1692  1  0.32629125  0.40625000  0.61120875  1
  Na  Na1693  1  0.32629125  0.40625000  0.73620875  1
  Na  Na1694  1  0.32629125  0.40625000  0.86120875  1
  Na  Na1695  1  0.32629125  0.40625000  0.98620875  1
  Na  Na1696  1  0.32629125  0.53125000  0.11120875  1
  Na  Na1697  1  0.32629125  0.53125000  0.23620875  1
  Na  Na1698  1  0.32629125  0.53125000  0.36120875  1
  Na  Na1699  1  0.32629125  0.53125000  0.48620875  1
  Na  Na1700  1  0.32629125  0.53125000  0.61120875  1
  Na  Na1701  1  0.32629125  0.53125000  0.73620875  1
  Na  Na1702  1  0.32629125  0.53125000  0.86120875  1
  Na  Na1703  1  0.32629125  0.53125000  0.98620875  1
  Na  Na1704  1  0.32629125  0.65625000  0.11120875  1
  Na  Na1705  1  0.32629125  0.65625000  0.23620875  1
  Na  Na1706  1  0.32629125  0.65625000  0.36120875  1
  Na  Na1707  1  0.32629125  0.65625000  0.48620875  1
  Na  Na1708  1  0.32629125  0.65625000  0.61120875  1
  Na  Na1709  1  0.32629125  0.65625000  0.73620875  1
  Na  Na1710  1  0.32629125  0.65625000  0.86120875  1
  Na  Na1711  1  0.32629125  0.65625000  0.98620875  1
  Na  Na1712  1  0.32629125  0.78125000  0.11120875  1
  Na  Na1713  1  0.32629125  0.78125000  0.23620875  1
  Na  Na1714  1  0.32629125  0.78125000  0.36120875  1
  Na  Na1715  1  0.32629125  0.78125000  0.48620875  1
  Na  Na1716  1  0.32629125  0.78125000  0.61120875  1
  Na  Na1717  1  0.32629125  0.78125000  0.73620875  1
  Na  Na1718  1  0.32629125  0.78125000  0.86120875  1
  Na  Na1719  1  0.32629125  0.78125000  0.98620875  1
  Na  Na1720  1  0.32629125  0.90625000  0.11120875  1
  Na  Na1721  1  0.32629125  0.90625000  0.23620875  1
  Na  Na1722  1  0.32629125  0.90625000  0.36120875  1
  Na  Na1723  1  0.32629125  0.90625000  0.48620875  1
  Na  Na1724  1  0.32629125  0.90625000  0.61120875  1
  Na  Na1725  1  0.32629125  0.90625000  0.73620875  1
  Na  Na1726  1  0.32629125  0.90625000  0.86120875  1
  Na  Na1727  1  0.32629125  0.90625000  0.98620875  1
  Na  Na1728  1  0.45129125  0.03125000  0.11120875  1
  Na  Na1729  1  0.45129125  0.03125000  0.23620875  1
  Na  Na1730  1  0.45129125  0.03125000  0.36120875  1
  Na  Na1731  1  0.45129125  0.03125000  0.48620875  1
  Na  Na1732  1  0.45129125  0.03125000  0.61120875  1
  Na  Na1733  1  0.45129125  0.03125000  0.73620875  1
  Na  Na1734  1  0.45129125  0.03125000  0.86120875  1
  Na  Na1735  1  0.45129125  0.03125000  0.98620875  1
  Na  Na1736  1  0.45129125  0.15625000  0.11120875  1
  Na  Na1737  1  0.45129125  0.15625000  0.23620875  1
  Na  Na1738  1  0.45129125  0.15625000  0.36120875  1
  Na  Na1739  1  0.45129125  0.15625000  0.48620875  1
  Na  Na1740  1  0.45129125  0.15625000  0.61120875  1
  Na  Na1741  1  0.45129125  0.15625000  0.73620875  1
  Na  Na1742  1  0.45129125  0.15625000  0.86120875  1
  Na  Na1743  1  0.45129125  0.15625000  0.98620875  1
  Na  Na1744  1  0.45129125  0.28125000  0.11120875  1
  Na  Na1745  1  0.45129125  0.28125000  0.23620875  1
  Na  Na1746  1  0.45129125  0.28125000  0.36120875  1
  Na  Na1747  1  0.45129125  0.28125000  0.48620875  1
  Na  Na1748  1  0.45129125  0.28125000  0.61120875  1
  Na  Na1749  1  0.45129125  0.28125000  0.73620875  1
  Na  Na1750  1  0.45129125  0.28125000  0.86120875  1
  Na  Na1751  1  0.45129125  0.28125000  0.98620875  1
  Na  Na1752  1  0.45129125  0.40625000  0.11120875  1
  Na  Na1753  1  0.45129125  0.40625000  0.23620875  1
  Na  Na1754  1  0.45129125  0.40625000  0.36120875  1
  Na  Na1755  1  0.45129125  0.40625000  0.48620875  1
  Na  Na1756  1  0.45129125  0.40625000  0.61120875  1
  Na  Na1757  1  0.45129125  0.40625000  0.73620875  1
  Na  Na1758  1  0.45129125  0.40625000  0.86120875  1
  Na  Na1759  1  0.45129125  0.40625000  0.98620875  1
  Na  Na1760  1  0.45129125  0.53125000  0.11120875  1
  Na  Na1761  1  0.45129125  0.53125000  0.23620875  1
  Na  Na1762  1  0.45129125  0.53125000  0.36120875  1
  Na  Na1763  1  0.45129125  0.53125000  0.48620875  1
  Na  Na1764  1  0.45129125  0.53125000  0.61120875  1
  Na  Na1765  1  0.45129125  0.53125000  0.73620875  1
  Na  Na1766  1  0.45129125  0.53125000  0.86120875  1
  Na  Na1767  1  0.45129125  0.53125000  0.98620875  1
  Na  Na1768  1  0.45129125  0.65625000  0.11120875  1
  Na  Na1769  1  0.45129125  0.65625000  0.23620875  1
  Na  Na1770  1  0.45129125  0.65625000  0.36120875  1
  Na  Na1771  1  0.45129125  0.65625000  0.48620875  1
  Na  Na1772  1  0.45129125  0.65625000  0.61120875  1
  Na  Na1773  1  0.45129125  0.65625000  0.73620875  1
  Na  Na1774  1  0.45129125  0.65625000  0.86120875  1
  Na  Na1775  1  0.45129125  0.65625000  0.98620875  1
  Na  Na1776  1  0.45129125  0.78125000  0.11120875  1
  Na  Na1777  1  0.45129125  0.78125000  0.23620875  1
  Na  Na1778  1  0.45129125  0.78125000  0.36120875  1
  Na  Na1779  1  0.45129125  0.78125000  0.48620875  1
  Na  Na1780  1  0.45129125  0.78125000  0.61120875  1
  Na  Na1781  1  0.45129125  0.78125000  0.73620875  1
  Na  Na1782  1  0.45129125  0.78125000  0.86120875  1
  Na  Na1783  1  0.45129125  0.78125000  0.98620875  1
  Na  Na1784  1  0.45129125  0.90625000  0.11120875  1
  Na  Na1785  1  0.45129125  0.90625000  0.23620875  1
  Na  Na1786  1  0.45129125  0.90625000  0.36120875  1
  Na  Na1787  1  0.45129125  0.90625000  0.48620875  1
  Na  Na1788  1  0.45129125  0.90625000  0.61120875  1
  Na  Na1789  1  0.45129125  0.90625000  0.73620875  1
  Na  Na1790  1  0.45129125  0.90625000  0.86120875  1
  Na  Na1791  1  0.45129125  0.90625000  0.98620875  1
  Na  Na1792  1  0.57629125  0.03125000  0.11120875  1
  Na  Na1793  1  0.57629125  0.03125000  0.23620875  1
  Na  Na1794  1  0.57629125  0.03125000  0.36120875  1
  Na  Na1795  1  0.57629125  0.03125000  0.48620875  1
  Na  Na1796  1  0.57629125  0.03125000  0.61120875  1
  Na  Na1797  1  0.57629125  0.03125000  0.73620875  1
  Na  Na1798  1  0.57629125  0.03125000  0.86120875  1
  Na  Na1799  1  0.57629125  0.03125000  0.98620875  1
  Na  Na1800  1  0.57629125  0.15625000  0.11120875  1
  Na  Na1801  1  0.57629125  0.15625000  0.23620875  1
  Na  Na1802  1  0.57629125  0.15625000  0.36120875  1
  Na  Na1803  1  0.57629125  0.15625000  0.48620875  1
  Na  Na1804  1  0.57629125  0.15625000  0.61120875  1
  Na  Na1805  1  0.57629125  0.15625000  0.73620875  1
  Na  Na1806  1  0.57629125  0.15625000  0.86120875  1
  Na  Na1807  1  0.57629125  0.15625000  0.98620875  1
  Na  Na1808  1  0.57629125  0.28125000  0.11120875  1
  Na  Na1809  1  0.57629125  0.28125000  0.23620875  1
  Na  Na1810  1  0.57629125  0.28125000  0.36120875  1
  Na  Na1811  1  0.57629125  0.28125000  0.48620875  1
  Na  Na1812  1  0.57629125  0.28125000  0.61120875  1
  Na  Na1813  1  0.57629125  0.28125000  0.73620875  1
  Na  Na1814  1  0.57629125  0.28125000  0.86120875  1
  Na  Na1815  1  0.57629125  0.28125000  0.98620875  1
  Na  Na1816  1  0.57629125  0.40625000  0.11120875  1
  Na  Na1817  1  0.57629125  0.40625000  0.23620875  1
  Na  Na1818  1  0.57629125  0.40625000  0.36120875  1
  Na  Na1819  1  0.57629125  0.40625000  0.48620875  1
  Na  Na1820  1  0.57629125  0.40625000  0.61120875  1
  Na  Na1821  1  0.57629125  0.40625000  0.73620875  1
  Na  Na1822  1  0.57629125  0.40625000  0.86120875  1
  Na  Na1823  1  0.57629125  0.40625000  0.98620875  1
  Na  Na1824  1  0.57629125  0.53125000  0.11120875  1
  Na  Na1825  1  0.57629125  0.53125000  0.23620875  1
  Na  Na1826  1  0.57629125  0.53125000  0.36120875  1
  Na  Na1827  1  0.57629125  0.53125000  0.48620875  1
  Na  Na1828  1  0.57629125  0.53125000  0.61120875  1
  Na  Na1829  1  0.57629125  0.53125000  0.73620875  1
  Na  Na1830  1  0.57629125  0.53125000  0.86120875  1
  Na  Na1831  1  0.57629125  0.53125000  0.98620875  1
  Na  Na1832  1  0.57629125  0.65625000  0.11120875  1
  Na  Na1833  1  0.57629125  0.65625000  0.23620875  1
  Na  Na1834  1  0.57629125  0.65625000  0.36120875  1
  Na  Na1835  1  0.57629125  0.65625000  0.48620875  1
  Na  Na1836  1  0.57629125  0.65625000  0.61120875  1
  Na  Na1837  1  0.57629125  0.65625000  0.73620875  1
  Na  Na1838  1  0.57629125  0.65625000  0.86120875  1
  Na  Na1839  1  0.57629125  0.65625000  0.98620875  1
  Na  Na1840  1  0.57629125  0.78125000  0.11120875  1
  Na  Na1841  1  0.57629125  0.78125000  0.23620875  1
  Na  Na1842  1  0.57629125  0.78125000  0.36120875  1
  Na  Na1843  1  0.57629125  0.78125000  0.48620875  1
  Na  Na1844  1  0.57629125  0.78125000  0.61120875  1
  Na  Na1845  1  0.57629125  0.78125000  0.73620875  1
  Na  Na1846  1  0.57629125  0.78125000  0.86120875  1
  Na  Na1847  1  0.57629125  0.78125000  0.98620875  1
  Na  Na1848  1  0.57629125  0.90625000  0.11120875  1
  Na  Na1849  1  0.57629125  0.90625000  0.23620875  1
  Na  Na1850  1  0.57629125  0.90625000  0.36120875  1
  Na  Na1851  1  0.57629125  0.90625000  0.48620875  1
  Na  Na1852  1  0.57629125  0.90625000  0.61120875  1
  Na  Na1853  1  0.57629125  0.90625000  0.73620875  1
  Na  Na1854  1  0.57629125  0.90625000  0.86120875  1
  Na  Na1855  1  0.57629125  0.90625000  0.98620875  1
  Na  Na1856  1  0.70129125  0.03125000  0.11120875  1
  Na  Na1857  1  0.70129125  0.03125000  0.23620875  1
  Na  Na1858  1  0.70129125  0.03125000  0.36120875  1
  Na  Na1859  1  0.70129125  0.03125000  0.48620875  1
  Na  Na1860  1  0.70129125  0.03125000  0.61120875  1
  Na  Na1861  1  0.70129125  0.03125000  0.73620875  1
  Na  Na1862  1  0.70129125  0.03125000  0.86120875  1
  Na  Na1863  1  0.70129125  0.03125000  0.98620875  1
  Na  Na1864  1  0.70129125  0.15625000  0.11120875  1
  Na  Na1865  1  0.70129125  0.15625000  0.23620875  1
  Na  Na1866  1  0.70129125  0.15625000  0.36120875  1
  Na  Na1867  1  0.70129125  0.15625000  0.48620875  1
  Na  Na1868  1  0.70129125  0.15625000  0.61120875  1
  Na  Na1869  1  0.70129125  0.15625000  0.73620875  1
  Na  Na1870  1  0.70129125  0.15625000  0.86120875  1
  Na  Na1871  1  0.70129125  0.15625000  0.98620875  1
  Na  Na1872  1  0.70129125  0.28125000  0.11120875  1
  Na  Na1873  1  0.70129125  0.28125000  0.23620875  1
  Na  Na1874  1  0.70129125  0.28125000  0.36120875  1
  Na  Na1875  1  0.70129125  0.28125000  0.48620875  1
  Na  Na1876  1  0.70129125  0.28125000  0.61120875  1
  Na  Na1877  1  0.70129125  0.28125000  0.73620875  1
  Na  Na1878  1  0.70129125  0.28125000  0.86120875  1
  Na  Na1879  1  0.70129125  0.28125000  0.98620875  1
  Na  Na1880  1  0.70129125  0.40625000  0.11120875  1
  Na  Na1881  1  0.70129125  0.40625000  0.23620875  1
  Na  Na1882  1  0.70129125  0.40625000  0.36120875  1
  Na  Na1883  1  0.70129125  0.40625000  0.48620875  1
  Na  Na1884  1  0.70129125  0.40625000  0.61120875  1
  Na  Na1885  1  0.70129125  0.40625000  0.73620875  1
  Na  Na1886  1  0.70129125  0.40625000  0.86120875  1
  Na  Na1887  1  0.70129125  0.40625000  0.98620875  1
  Na  Na1888  1  0.70129125  0.53125000  0.11120875  1
  Na  Na1889  1  0.70129125  0.53125000  0.23620875  1
  Na  Na1890  1  0.70129125  0.53125000  0.36120875  1
  Na  Na1891  1  0.70129125  0.53125000  0.48620875  1
  Na  Na1892  1  0.70129125  0.53125000  0.61120875  1
  Na  Na1893  1  0.70129125  0.53125000  0.73620875  1
  Na  Na1894  1  0.70129125  0.53125000  0.86120875  1
  Na  Na1895  1  0.70129125  0.53125000  0.98620875  1
  Na  Na1896  1  0.70129125  0.65625000  0.11120875  1
  Na  Na1897  1  0.70129125  0.65625000  0.23620875  1
  Na  Na1898  1  0.70129125  0.65625000  0.36120875  1
  Na  Na1899  1  0.70129125  0.65625000  0.48620875  1
  Na  Na1900  1  0.70129125  0.65625000  0.61120875  1
  Na  Na1901  1  0.70129125  0.65625000  0.73620875  1
  Na  Na1902  1  0.70129125  0.65625000  0.86120875  1
  Na  Na1903  1  0.70129125  0.65625000  0.98620875  1
  Na  Na1904  1  0.70129125  0.78125000  0.11120875  1
  Na  Na1905  1  0.70129125  0.78125000  0.23620875  1
  Na  Na1906  1  0.70129125  0.78125000  0.36120875  1
  Na  Na1907  1  0.70129125  0.78125000  0.48620875  1
  Na  Na1908  1  0.70129125  0.78125000  0.61120875  1
  Na  Na1909  1  0.70129125  0.78125000  0.73620875  1
  Na  Na1910  1  0.70129125  0.78125000  0.86120875  1
  Na  Na1911  1  0.70129125  0.78125000  0.98620875  1
  Na  Na1912  1  0.70129125  0.90625000  0.11120875  1
  Na  Na1913  1  0.70129125  0.90625000  0.23620875  1
  Na  Na1914  1  0.70129125  0.90625000  0.36120875  1
  Na  Na1915  1  0.70129125  0.90625000  0.48620875  1
  Na  Na1916  1  0.70129125  0.90625000  0.61120875  1
  Na  Na1917  1  0.70129125  0.90625000  0.73620875  1
  Na  Na1918  1  0.70129125  0.90625000  0.86120875  1
  Na  Na1919  1  0.70129125  0.90625000  0.98620875  1
  Na  Na1920  1  0.82629125  0.03125000  0.11120875  1
  Na  Na1921  1  0.82629125  0.03125000  0.23620875  1
  Na  Na1922  1  0.82629125  0.03125000  0.36120875  1
  Na  Na1923  1  0.82629125  0.03125000  0.48620875  1
  Na  Na1924  1  0.82629125  0.03125000  0.61120875  1
  Na  Na1925  1  0.82629125  0.03125000  0.73620875  1
  Na  Na1926  1  0.82629125  0.03125000  0.86120875  1
  Na  Na1927  1  0.82629125  0.03125000  0.98620875  1
  Na  Na1928  1  0.82629125  0.15625000  0.11120875  1
  Na  Na1929  1  0.82629125  0.15625000  0.23620875  1
  Na  Na1930  1  0.82629125  0.15625000  0.36120875  1
  Na  Na1931  1  0.82629125  0.15625000  0.48620875  1
  Na  Na1932  1  0.82629125  0.15625000  0.61120875  1
  Na  Na1933  1  0.82629125  0.15625000  0.73620875  1
  Na  Na1934  1  0.82629125  0.15625000  0.86120875  1
  Na  Na1935  1  0.82629125  0.15625000  0.98620875  1
  Na  Na1936  1  0.82629125  0.28125000  0.11120875  1
  Na  Na1937  1  0.82629125  0.28125000  0.23620875  1
  Na  Na1938  1  0.82629125  0.28125000  0.36120875  1
  Na  Na1939  1  0.82629125  0.28125000  0.48620875  1
  Na  Na1940  1  0.82629125  0.28125000  0.61120875  1
  Na  Na1941  1  0.82629125  0.28125000  0.73620875  1
  Na  Na1942  1  0.82629125  0.28125000  0.86120875  1
  Na  Na1943  1  0.82629125  0.28125000  0.98620875  1
  Na  Na1944  1  0.82629125  0.40625000  0.11120875  1
  Na  Na1945  1  0.82629125  0.40625000  0.23620875  1
  Na  Na1946  1  0.82629125  0.40625000  0.36120875  1
  Na  Na1947  1  0.82629125  0.40625000  0.48620875  1
  Na  Na1948  1  0.82629125  0.40625000  0.61120875  1
  Na  Na1949  1  0.82629125  0.40625000  0.73620875  1
  Na  Na1950  1  0.82629125  0.40625000  0.86120875  1
  Na  Na1951  1  0.82629125  0.40625000  0.98620875  1
  Na  Na1952  1  0.82629125  0.53125000  0.11120875  1
  Na  Na1953  1  0.82629125  0.53125000  0.23620875  1
  Na  Na1954  1  0.82629125  0.53125000  0.36120875  1
  Na  Na1955  1  0.82629125  0.53125000  0.48620875  1
  Na  Na1956  1  0.82629125  0.53125000  0.61120875  1
  Na  Na1957  1  0.82629125  0.53125000  0.73620875  1
  Na  Na1958  1  0.82629125  0.53125000  0.86120875  1
  Na  Na1959  1  0.82629125  0.53125000  0.98620875  1
  Na  Na1960  1  0.82629125  0.65625000  0.11120875  1
  Na  Na1961  1  0.82629125  0.65625000  0.23620875  1
  Na  Na1962  1  0.82629125  0.65625000  0.36120875  1
  Na  Na1963  1  0.82629125  0.65625000  0.48620875  1
  Na  Na1964  1  0.82629125  0.65625000  0.61120875  1
  Na  Na1965  1  0.82629125  0.65625000  0.73620875  1
  Na  Na1966  1  0.82629125  0.65625000  0.86120875  1
  Na  Na1967  1  0.82629125  0.65625000  0.98620875  1
  Na  Na1968  1  0.82629125  0.78125000  0.11120875  1
  Na  Na1969  1  0.82629125  0.78125000  0.23620875  1
  Na  Na1970  1  0.82629125  0.78125000  0.36120875  1
  Na  Na1971  1  0.82629125  0.78125000  0.48620875  1
  Na  Na1972  1  0.82629125  0.78125000  0.61120875  1
  Na  Na1973  1  0.82629125  0.78125000  0.73620875  1
  Na  Na1974  1  0.82629125  0.78125000  0.86120875  1
  Na  Na1975  1  0.82629125  0.78125000  0.98620875  1
  Na  Na1976  1  0.82629125  0.90625000  0.11120875  1
  Na  Na1977  1  0.82629125  0.90625000  0.23620875  1
  Na  Na1978  1  0.82629125  0.90625000  0.36120875  1
  Na  Na1979  1  0.82629125  0.90625000  0.48620875  1
  Na  Na1980  1  0.82629125  0.90625000  0.61120875  1
  Na  Na1981  1  0.82629125  0.90625000  0.73620875  1
  Na  Na1982  1  0.82629125  0.90625000  0.86120875  1
  Na  Na1983  1  0.82629125  0.90625000  0.98620875  1
  Na  Na1984  1  0.95129125  0.03125000  0.11120875  1
  Na  Na1985  1  0.95129125  0.03125000  0.23620875  1
  Na  Na1986  1  0.95129125  0.03125000  0.36120875  1
  Na  Na1987  1  0.95129125  0.03125000  0.48620875  1
  Na  Na1988  1  0.95129125  0.03125000  0.61120875  1
  Na  Na1989  1  0.95129125  0.03125000  0.73620875  1
  Na  Na1990  1  0.95129125  0.03125000  0.86120875  1
  Na  Na1991  1  0.95129125  0.03125000  0.98620875  1
  Na  Na1992  1  0.95129125  0.15625000  0.11120875  1
  Na  Na1993  1  0.95129125  0.15625000  0.23620875  1
  Na  Na1994  1  0.95129125  0.15625000  0.36120875  1
  Na  Na1995  1  0.95129125  0.15625000  0.48620875  1
  Na  Na1996  1  0.95129125  0.15625000  0.61120875  1
  Na  Na1997  1  0.95129125  0.15625000  0.73620875  1
  Na  Na1998  1  0.95129125  0.15625000  0.86120875  1
  Na  Na1999  1  0.95129125  0.15625000  0.98620875  1
  Na  Na2000  1  0.95129125  0.28125000  0.11120875  1
  Na  Na2001  1  0.95129125  0.28125000  0.23620875  1
  Na  Na2002  1  0.95129125  0.28125000  0.36120875  1
  Na  Na2003  1  0.95129125  0.28125000  0.48620875  1
  Na  Na2004  1  0.95129125  0.28125000  0.61120875  1
  Na  Na2005  1  0.95129125  0.28125000  0.73620875  1
  Na  Na2006  1  0.95129125  0.28125000  0.86120875  1
  Na  Na2007  1  0.95129125  0.28125000  0.98620875  1
  Na  Na2008  1  0.95129125  0.40625000  0.11120875  1
  Na  Na2009  1  0.95129125  0.40625000  0.23620875  1
  Na  Na2010  1  0.95129125  0.40625000  0.36120875  1
  Na  Na2011  1  0.95129125  0.40625000  0.48620875  1
  Na  Na2012  1  0.95129125  0.40625000  0.61120875  1
  Na  Na2013  1  0.95129125  0.40625000  0.73620875  1
  Na  Na2014  1  0.95129125  0.40625000  0.86120875  1
  Na  Na2015  1  0.95129125  0.40625000  0.98620875  1
  Na  Na2016  1  0.95129125  0.53125000  0.11120875  1
  Na  Na2017  1  0.95129125  0.53125000  0.23620875  1
  Na  Na2018  1  0.95129125  0.53125000  0.36120875  1
  Na  Na2019  1  0.95129125  0.53125000  0.48620875  1
  Na  Na2020  1  0.95129125  0.53125000  0.61120875  1
  Na  Na2021  1  0.95129125  0.53125000  0.73620875  1
  Na  Na2022  1  0.95129125  0.53125000  0.86120875  1
  Na  Na2023  1  0.95129125  0.53125000  0.98620875  1
  Na  Na2024  1  0.95129125  0.65625000  0.11120875  1
  Na  Na2025  1  0.95129125  0.65625000  0.23620875  1
  Na  Na2026  1  0.95129125  0.65625000  0.36120875  1
  Na  Na2027  1  0.95129125  0.65625000  0.48620875  1
  Na  Na2028  1  0.95129125  0.65625000  0.61120875  1
  Na  Na2029  1  0.95129125  0.65625000  0.73620875  1
  Na  Na2030  1  0.95129125  0.65625000  0.86120875  1
  Na  Na2031  1  0.95129125  0.65625000  0.98620875  1
  Na  Na2032  1  0.95129125  0.78125000  0.11120875  1
  Na  Na2033  1  0.95129125  0.78125000  0.23620875  1
  Na  Na2034  1  0.95129125  0.78125000  0.36120875  1
  Na  Na2035  1  0.95129125  0.78125000  0.48620875  1
  Na  Na2036  1  0.95129125  0.78125000  0.61120875  1
  Na  Na2037  1  0.95129125  0.78125000  0.73620875  1
  Na  Na2038  1  0.95129125  0.78125000  0.86120875  1
  Na  Na2039  1  0.95129125  0.78125000  0.98620875  1
  Na  Na2040  1  0.95129125  0.90625000  0.11120875  1
  Na  Na2041  1  0.95129125  0.90625000  0.23620875  1
  Na  Na2042  1  0.95129125  0.90625000  0.36120875  1
  Na  Na2043  1  0.95129125  0.90625000  0.48620875  1
  Na  Na2044  1  0.95129125  0.90625000  0.61120875  1
  Na  Na2045  1  0.95129125  0.90625000  0.73620875  1
  Na  Na2046  1  0.95129125  0.90625000  0.86120875  1
  Na  Na2047  1  0.95129125  0.90625000  0.98620875  1
  Na  Na2048  1  0.03125000  0.11120875  0.07629125  1
  Na  Na2049  1  0.03125000  0.11120875  0.20129125  1
  Na  Na2050  1  0.03125000  0.11120875  0.32629125  1
  Na  Na2051  1  0.03125000  0.11120875  0.45129125  1
  Na  Na2052  1  0.03125000  0.11120875  0.57629125  1
  Na  Na2053  1  0.03125000  0.11120875  0.70129125  1
  Na  Na2054  1  0.03125000  0.11120875  0.82629125  1
  Na  Na2055  1  0.03125000  0.11120875  0.95129125  1
  Na  Na2056  1  0.03125000  0.23620875  0.07629125  1
  Na  Na2057  1  0.03125000  0.23620875  0.20129125  1
  Na  Na2058  1  0.03125000  0.23620875  0.32629125  1
  Na  Na2059  1  0.03125000  0.23620875  0.45129125  1
  Na  Na2060  1  0.03125000  0.23620875  0.57629125  1
  Na  Na2061  1  0.03125000  0.23620875  0.70129125  1
  Na  Na2062  1  0.03125000  0.23620875  0.82629125  1
  Na  Na2063  1  0.03125000  0.23620875  0.95129125  1
  Na  Na2064  1  0.03125000  0.36120875  0.07629125  1
  Na  Na2065  1  0.03125000  0.36120875  0.20129125  1
  Na  Na2066  1  0.03125000  0.36120875  0.32629125  1
  Na  Na2067  1  0.03125000  0.36120875  0.45129125  1
  Na  Na2068  1  0.03125000  0.36120875  0.57629125  1
  Na  Na2069  1  0.03125000  0.36120875  0.70129125  1
  Na  Na2070  1  0.03125000  0.36120875  0.82629125  1
  Na  Na2071  1  0.03125000  0.36120875  0.95129125  1
  Na  Na2072  1  0.03125000  0.48620875  0.07629125  1
  Na  Na2073  1  0.03125000  0.48620875  0.20129125  1
  Na  Na2074  1  0.03125000  0.48620875  0.32629125  1
  Na  Na2075  1  0.03125000  0.48620875  0.45129125  1
  Na  Na2076  1  0.03125000  0.48620875  0.57629125  1
  Na  Na2077  1  0.03125000  0.48620875  0.70129125  1
  Na  Na2078  1  0.03125000  0.48620875  0.82629125  1
  Na  Na2079  1  0.03125000  0.48620875  0.95129125  1
  Na  Na2080  1  0.03125000  0.61120875  0.07629125  1
  Na  Na2081  1  0.03125000  0.61120875  0.20129125  1
  Na  Na2082  1  0.03125000  0.61120875  0.32629125  1
  Na  Na2083  1  0.03125000  0.61120875  0.45129125  1
  Na  Na2084  1  0.03125000  0.61120875  0.57629125  1
  Na  Na2085  1  0.03125000  0.61120875  0.70129125  1
  Na  Na2086  1  0.03125000  0.61120875  0.82629125  1
  Na  Na2087  1  0.03125000  0.61120875  0.95129125  1
  Na  Na2088  1  0.03125000  0.73620875  0.07629125  1
  Na  Na2089  1  0.03125000  0.73620875  0.20129125  1
  Na  Na2090  1  0.03125000  0.73620875  0.32629125  1
  Na  Na2091  1  0.03125000  0.73620875  0.45129125  1
  Na  Na2092  1  0.03125000  0.73620875  0.57629125  1
  Na  Na2093  1  0.03125000  0.73620875  0.70129125  1
  Na  Na2094  1  0.03125000  0.73620875  0.82629125  1
  Na  Na2095  1  0.03125000  0.73620875  0.95129125  1
  Na  Na2096  1  0.03125000  0.86120875  0.07629125  1
  Na  Na2097  1  0.03125000  0.86120875  0.20129125  1
  Na  Na2098  1  0.03125000  0.86120875  0.32629125  1
  Na  Na2099  1  0.03125000  0.86120875  0.45129125  1
  Na  Na2100  1  0.03125000  0.86120875  0.57629125  1
  Na  Na2101  1  0.03125000  0.86120875  0.70129125  1
  Na  Na2102  1  0.03125000  0.86120875  0.82629125  1
  Na  Na2103  1  0.03125000  0.86120875  0.95129125  1
  Na  Na2104  1  0.03125000  0.98620875  0.07629125  1
  Na  Na2105  1  0.03125000  0.98620875  0.20129125  1
  Na  Na2106  1  0.03125000  0.98620875  0.32629125  1
  Na  Na2107  1  0.03125000  0.98620875  0.45129125  1
  Na  Na2108  1  0.03125000  0.98620875  0.57629125  1
  Na  Na2109  1  0.03125000  0.98620875  0.70129125  1
  Na  Na2110  1  0.03125000  0.98620875  0.82629125  1
  Na  Na2111  1  0.03125000  0.98620875  0.95129125  1
  Na  Na2112  1  0.15625000  0.11120875  0.07629125  1
  Na  Na2113  1  0.15625000  0.11120875  0.20129125  1
  Na  Na2114  1  0.15625000  0.11120875  0.32629125  1
  Na  Na2115  1  0.15625000  0.11120875  0.45129125  1
  Na  Na2116  1  0.15625000  0.11120875  0.57629125  1
  Na  Na2117  1  0.15625000  0.11120875  0.70129125  1
  Na  Na2118  1  0.15625000  0.11120875  0.82629125  1
  Na  Na2119  1  0.15625000  0.11120875  0.95129125  1
  Na  Na2120  1  0.15625000  0.23620875  0.07629125  1
  Na  Na2121  1  0.15625000  0.23620875  0.20129125  1
  Na  Na2122  1  0.15625000  0.23620875  0.32629125  1
  Na  Na2123  1  0.15625000  0.23620875  0.45129125  1
  Na  Na2124  1  0.15625000  0.23620875  0.57629125  1
  Na  Na2125  1  0.15625000  0.23620875  0.70129125  1
  Na  Na2126  1  0.15625000  0.23620875  0.82629125  1
  Na  Na2127  1  0.15625000  0.23620875  0.95129125  1
  Na  Na2128  1  0.15625000  0.36120875  0.07629125  1
  Na  Na2129  1  0.15625000  0.36120875  0.20129125  1
  Na  Na2130  1  0.15625000  0.36120875  0.32629125  1
  Na  Na2131  1  0.15625000  0.36120875  0.45129125  1
  Na  Na2132  1  0.15625000  0.36120875  0.57629125  1
  Na  Na2133  1  0.15625000  0.36120875  0.70129125  1
  Na  Na2134  1  0.15625000  0.36120875  0.82629125  1
  Na  Na2135  1  0.15625000  0.36120875  0.95129125  1
  Na  Na2136  1  0.15625000  0.48620875  0.07629125  1
  Na  Na2137  1  0.15625000  0.48620875  0.20129125  1
  Na  Na2138  1  0.15625000  0.48620875  0.32629125  1
  Na  Na2139  1  0.15625000  0.48620875  0.45129125  1
  Na  Na2140  1  0.15625000  0.48620875  0.57629125  1
  Na  Na2141  1  0.15625000  0.48620875  0.70129125  1
  Na  Na2142  1  0.15625000  0.48620875  0.82629125  1
  Na  Na2143  1  0.15625000  0.48620875  0.95129125  1
  Na  Na2144  1  0.15625000  0.61120875  0.07629125  1
  Na  Na2145  1  0.15625000  0.61120875  0.20129125  1
  Na  Na2146  1  0.15625000  0.61120875  0.32629125  1
  Na  Na2147  1  0.15625000  0.61120875  0.45129125  1
  Na  Na2148  1  0.15625000  0.61120875  0.57629125  1
  Na  Na2149  1  0.15625000  0.61120875  0.70129125  1
  Na  Na2150  1  0.15625000  0.61120875  0.82629125  1
  Na  Na2151  1  0.15625000  0.61120875  0.95129125  1
  Na  Na2152  1  0.15625000  0.73620875  0.07629125  1
  Na  Na2153  1  0.15625000  0.73620875  0.20129125  1
  Na  Na2154  1  0.15625000  0.73620875  0.32629125  1
  Na  Na2155  1  0.15625000  0.73620875  0.45129125  1
  Na  Na2156  1  0.15625000  0.73620875  0.57629125  1
  Na  Na2157  1  0.15625000  0.73620875  0.70129125  1
  Na  Na2158  1  0.15625000  0.73620875  0.82629125  1
  Na  Na2159  1  0.15625000  0.73620875  0.95129125  1
  Na  Na2160  1  0.15625000  0.86120875  0.07629125  1
  Na  Na2161  1  0.15625000  0.86120875  0.20129125  1
  Na  Na2162  1  0.15625000  0.86120875  0.32629125  1
  Na  Na2163  1  0.15625000  0.86120875  0.45129125  1
  Na  Na2164  1  0.15625000  0.86120875  0.57629125  1
  Na  Na2165  1  0.15625000  0.86120875  0.70129125  1
  Na  Na2166  1  0.15625000  0.86120875  0.82629125  1
  Na  Na2167  1  0.15625000  0.86120875  0.95129125  1
  Na  Na2168  1  0.15625000  0.98620875  0.07629125  1
  Na  Na2169  1  0.15625000  0.98620875  0.20129125  1
  Na  Na2170  1  0.15625000  0.98620875  0.32629125  1
  Na  Na2171  1  0.15625000  0.98620875  0.45129125  1
  Na  Na2172  1  0.15625000  0.98620875  0.57629125  1
  Na  Na2173  1  0.15625000  0.98620875  0.70129125  1
  Na  Na2174  1  0.15625000  0.98620875  0.82629125  1
  Na  Na2175  1  0.15625000  0.98620875  0.95129125  1
  Na  Na2176  1  0.28125000  0.11120875  0.07629125  1
  Na  Na2177  1  0.28125000  0.11120875  0.20129125  1
  Na  Na2178  1  0.28125000  0.11120875  0.32629125  1
  Na  Na2179  1  0.28125000  0.11120875  0.45129125  1
  Na  Na2180  1  0.28125000  0.11120875  0.57629125  1
  Na  Na2181  1  0.28125000  0.11120875  0.70129125  1
  Na  Na2182  1  0.28125000  0.11120875  0.82629125  1
  Na  Na2183  1  0.28125000  0.11120875  0.95129125  1
  Na  Na2184  1  0.28125000  0.23620875  0.07629125  1
  Na  Na2185  1  0.28125000  0.23620875  0.20129125  1
  Na  Na2186  1  0.28125000  0.23620875  0.32629125  1
  Na  Na2187  1  0.28125000  0.23620875  0.45129125  1
  Na  Na2188  1  0.28125000  0.23620875  0.57629125  1
  Na  Na2189  1  0.28125000  0.23620875  0.70129125  1
  Na  Na2190  1  0.28125000  0.23620875  0.82629125  1
  Na  Na2191  1  0.28125000  0.23620875  0.95129125  1
  Na  Na2192  1  0.28125000  0.36120875  0.07629125  1
  Na  Na2193  1  0.28125000  0.36120875  0.20129125  1
  Na  Na2194  1  0.28125000  0.36120875  0.32629125  1
  Na  Na2195  1  0.28125000  0.36120875  0.45129125  1
  Na  Na2196  1  0.28125000  0.36120875  0.57629125  1
  Na  Na2197  1  0.28125000  0.36120875  0.70129125  1
  Na  Na2198  1  0.28125000  0.36120875  0.82629125  1
  Na  Na2199  1  0.28125000  0.36120875  0.95129125  1
  Na  Na2200  1  0.28125000  0.48620875  0.07629125  1
  Na  Na2201  1  0.28125000  0.48620875  0.20129125  1
  Na  Na2202  1  0.28125000  0.48620875  0.32629125  1
  Na  Na2203  1  0.28125000  0.48620875  0.45129125  1
  Na  Na2204  1  0.28125000  0.48620875  0.57629125  1
  Na  Na2205  1  0.28125000  0.48620875  0.70129125  1
  Na  Na2206  1  0.28125000  0.48620875  0.82629125  1
  Na  Na2207  1  0.28125000  0.48620875  0.95129125  1
  Na  Na2208  1  0.28125000  0.61120875  0.07629125  1
  Na  Na2209  1  0.28125000  0.61120875  0.20129125  1
  Na  Na2210  1  0.28125000  0.61120875  0.32629125  1
  Na  Na2211  1  0.28125000  0.61120875  0.45129125  1
  Na  Na2212  1  0.28125000  0.61120875  0.57629125  1
  Na  Na2213  1  0.28125000  0.61120875  0.70129125  1
  Na  Na2214  1  0.28125000  0.61120875  0.82629125  1
  Na  Na2215  1  0.28125000  0.61120875  0.95129125  1
  Na  Na2216  1  0.28125000  0.73620875  0.07629125  1
  Na  Na2217  1  0.28125000  0.73620875  0.20129125  1
  Na  Na2218  1  0.28125000  0.73620875  0.32629125  1
  Na  Na2219  1  0.28125000  0.73620875  0.45129125  1
  Na  Na2220  1  0.28125000  0.73620875  0.57629125  1
  Na  Na2221  1  0.28125000  0.73620875  0.70129125  1
  Na  Na2222  1  0.28125000  0.73620875  0.82629125  1
  Na  Na2223  1  0.28125000  0.73620875  0.95129125  1
  Na  Na2224  1  0.28125000  0.86120875  0.07629125  1
  Na  Na2225  1  0.28125000  0.86120875  0.20129125  1
  Na  Na2226  1  0.28125000  0.86120875  0.32629125  1
  Na  Na2227  1  0.28125000  0.86120875  0.45129125  1
  Na  Na2228  1  0.28125000  0.86120875  0.57629125  1
  Na  Na2229  1  0.28125000  0.86120875  0.70129125  1
  Na  Na2230  1  0.28125000  0.86120875  0.82629125  1
  Na  Na2231  1  0.28125000  0.86120875  0.95129125  1
  Na  Na2232  1  0.28125000  0.98620875  0.07629125  1
  Na  Na2233  1  0.28125000  0.98620875  0.20129125  1
  Na  Na2234  1  0.28125000  0.98620875  0.32629125  1
  Na  Na2235  1  0.28125000  0.98620875  0.45129125  1
  Na  Na2236  1  0.28125000  0.98620875  0.57629125  1
  Na  Na2237  1  0.28125000  0.98620875  0.70129125  1
  Na  Na2238  1  0.28125000  0.98620875  0.82629125  1
  Na  Na2239  1  0.28125000  0.98620875  0.95129125  1
  Na  Na2240  1  0.40625000  0.11120875  0.07629125  1
  Na  Na2241  1  0.40625000  0.11120875  0.20129125  1
  Na  Na2242  1  0.40625000  0.11120875  0.32629125  1
  Na  Na2243  1  0.40625000  0.11120875  0.45129125  1
  Na  Na2244  1  0.40625000  0.11120875  0.57629125  1
  Na  Na2245  1  0.40625000  0.11120875  0.70129125  1
  Na  Na2246  1  0.40625000  0.11120875  0.82629125  1
  Na  Na2247  1  0.40625000  0.11120875  0.95129125  1
  Na  Na2248  1  0.40625000  0.23620875  0.07629125  1
  Na  Na2249  1  0.40625000  0.23620875  0.20129125  1
  Na  Na2250  1  0.40625000  0.23620875  0.32629125  1
  Na  Na2251  1  0.40625000  0.23620875  0.45129125  1
  Na  Na2252  1  0.40625000  0.23620875  0.57629125  1
  Na  Na2253  1  0.40625000  0.23620875  0.70129125  1
  Na  Na2254  1  0.40625000  0.23620875  0.82629125  1
  Na  Na2255  1  0.40625000  0.23620875  0.95129125  1
  Na  Na2256  1  0.40625000  0.36120875  0.07629125  1
  Na  Na2257  1  0.40625000  0.36120875  0.20129125  1
  Na  Na2258  1  0.40625000  0.36120875  0.32629125  1
  Na  Na2259  1  0.40625000  0.36120875  0.45129125  1
  Na  Na2260  1  0.40625000  0.36120875  0.57629125  1
  Na  Na2261  1  0.40625000  0.36120875  0.70129125  1
  Na  Na2262  1  0.40625000  0.36120875  0.82629125  1
  Na  Na2263  1  0.40625000  0.36120875  0.95129125  1
  Na  Na2264  1  0.40625000  0.48620875  0.07629125  1
  Na  Na2265  1  0.40625000  0.48620875  0.20129125  1
  Na  Na2266  1  0.40625000  0.48620875  0.32629125  1
  Na  Na2267  1  0.40625000  0.48620875  0.45129125  1
  Na  Na2268  1  0.40625000  0.48620875  0.57629125  1
  Na  Na2269  1  0.40625000  0.48620875  0.70129125  1
  Na  Na2270  1  0.40625000  0.48620875  0.82629125  1
  Na  Na2271  1  0.40625000  0.48620875  0.95129125  1
  Na  Na2272  1  0.40625000  0.61120875  0.07629125  1
  Na  Na2273  1  0.40625000  0.61120875  0.20129125  1
  Na  Na2274  1  0.40625000  0.61120875  0.32629125  1
  Na  Na2275  1  0.40625000  0.61120875  0.45129125  1
  Na  Na2276  1  0.40625000  0.61120875  0.57629125  1
  Na  Na2277  1  0.40625000  0.61120875  0.70129125  1
  Na  Na2278  1  0.40625000  0.61120875  0.82629125  1
  Na  Na2279  1  0.40625000  0.61120875  0.95129125  1
  Na  Na2280  1  0.40625000  0.73620875  0.07629125  1
  Na  Na2281  1  0.40625000  0.73620875  0.20129125  1
  Na  Na2282  1  0.40625000  0.73620875  0.32629125  1
  Na  Na2283  1  0.40625000  0.73620875  0.45129125  1
  Na  Na2284  1  0.40625000  0.73620875  0.57629125  1
  Na  Na2285  1  0.40625000  0.73620875  0.70129125  1
  Na  Na2286  1  0.40625000  0.73620875  0.82629125  1
  Na  Na2287  1  0.40625000  0.73620875  0.95129125  1
  Na  Na2288  1  0.40625000  0.86120875  0.07629125  1
  Na  Na2289  1  0.40625000  0.86120875  0.20129125  1
  Na  Na2290  1  0.40625000  0.86120875  0.32629125  1
  Na  Na2291  1  0.40625000  0.86120875  0.45129125  1
  Na  Na2292  1  0.40625000  0.86120875  0.57629125  1
  Na  Na2293  1  0.40625000  0.86120875  0.70129125  1
  Na  Na2294  1  0.40625000  0.86120875  0.82629125  1
  Na  Na2295  1  0.40625000  0.86120875  0.95129125  1
  Na  Na2296  1  0.40625000  0.98620875  0.07629125  1
  Na  Na2297  1  0.40625000  0.98620875  0.20129125  1
  Na  Na2298  1  0.40625000  0.98620875  0.32629125  1
  Na  Na2299  1  0.40625000  0.98620875  0.45129125  1
  Na  Na2300  1  0.40625000  0.98620875  0.57629125  1
  Na  Na2301  1  0.40625000  0.98620875  0.70129125  1
  Na  Na2302  1  0.40625000  0.98620875  0.82629125  1
  Na  Na2303  1  0.40625000  0.98620875  0.95129125  1
  Na  Na2304  1  0.53125000  0.11120875  0.07629125  1
  Na  Na2305  1  0.53125000  0.11120875  0.20129125  1
  Na  Na2306  1  0.53125000  0.11120875  0.32629125  1
  Na  Na2307  1  0.53125000  0.11120875  0.45129125  1
  Na  Na2308  1  0.53125000  0.11120875  0.57629125  1
  Na  Na2309  1  0.53125000  0.11120875  0.70129125  1
  Na  Na2310  1  0.53125000  0.11120875  0.82629125  1
  Na  Na2311  1  0.53125000  0.11120875  0.95129125  1
  Na  Na2312  1  0.53125000  0.23620875  0.07629125  1
  Na  Na2313  1  0.53125000  0.23620875  0.20129125  1
  Na  Na2314  1  0.53125000  0.23620875  0.32629125  1
  Na  Na2315  1  0.53125000  0.23620875  0.45129125  1
  Na  Na2316  1  0.53125000  0.23620875  0.57629125  1
  Na  Na2317  1  0.53125000  0.23620875  0.70129125  1
  Na  Na2318  1  0.53125000  0.23620875  0.82629125  1
  Na  Na2319  1  0.53125000  0.23620875  0.95129125  1
  Na  Na2320  1  0.53125000  0.36120875  0.07629125  1
  Na  Na2321  1  0.53125000  0.36120875  0.20129125  1
  Na  Na2322  1  0.53125000  0.36120875  0.32629125  1
  Na  Na2323  1  0.53125000  0.36120875  0.45129125  1
  Na  Na2324  1  0.53125000  0.36120875  0.57629125  1
  Na  Na2325  1  0.53125000  0.36120875  0.70129125  1
  Na  Na2326  1  0.53125000  0.36120875  0.82629125  1
  Na  Na2327  1  0.53125000  0.36120875  0.95129125  1
  Na  Na2328  1  0.53125000  0.48620875  0.07629125  1
  Na  Na2329  1  0.53125000  0.48620875  0.20129125  1
  Na  Na2330  1  0.53125000  0.48620875  0.32629125  1
  Na  Na2331  1  0.53125000  0.48620875  0.45129125  1
  Na  Na2332  1  0.53125000  0.48620875  0.57629125  1
  Na  Na2333  1  0.53125000  0.48620875  0.70129125  1
  Na  Na2334  1  0.53125000  0.48620875  0.82629125  1
  Na  Na2335  1  0.53125000  0.48620875  0.95129125  1
  Na  Na2336  1  0.53125000  0.61120875  0.07629125  1
  Na  Na2337  1  0.53125000  0.61120875  0.20129125  1
  Na  Na2338  1  0.53125000  0.61120875  0.32629125  1
  Na  Na2339  1  0.53125000  0.61120875  0.45129125  1
  Na  Na2340  1  0.53125000  0.61120875  0.57629125  1
  Na  Na2341  1  0.53125000  0.61120875  0.70129125  1
  Na  Na2342  1  0.53125000  0.61120875  0.82629125  1
  Na  Na2343  1  0.53125000  0.61120875  0.95129125  1
  Na  Na2344  1  0.53125000  0.73620875  0.07629125  1
  Na  Na2345  1  0.53125000  0.73620875  0.20129125  1
  Na  Na2346  1  0.53125000  0.73620875  0.32629125  1
  Na  Na2347  1  0.53125000  0.73620875  0.45129125  1
  Na  Na2348  1  0.53125000  0.73620875  0.57629125  1
  Na  Na2349  1  0.53125000  0.73620875  0.70129125  1
  Na  Na2350  1  0.53125000  0.73620875  0.82629125  1
  Na  Na2351  1  0.53125000  0.73620875  0.95129125  1
  Na  Na2352  1  0.53125000  0.86120875  0.07629125  1
  Na  Na2353  1  0.53125000  0.86120875  0.20129125  1
  Na  Na2354  1  0.53125000  0.86120875  0.32629125  1
  Na  Na2355  1  0.53125000  0.86120875  0.45129125  1
  Na  Na2356  1  0.53125000  0.86120875  0.57629125  1
  Na  Na2357  1  0.53125000  0.86120875  0.70129125  1
  Na  Na2358  1  0.53125000  0.86120875  0.82629125  1
  Na  Na2359  1  0.53125000  0.86120875  0.95129125  1
  Na  Na2360  1  0.53125000  0.98620875  0.07629125  1
  Na  Na2361  1  0.53125000  0.98620875  0.20129125  1
  Na  Na2362  1  0.53125000  0.98620875  0.32629125  1
  Na  Na2363  1  0.53125000  0.98620875  0.45129125  1
  Na  Na2364  1  0.53125000  0.98620875  0.57629125  1
  Na  Na2365  1  0.53125000  0.98620875  0.70129125  1
  Na  Na2366  1  0.53125000  0.98620875  0.82629125  1
  Na  Na2367  1  0.53125000  0.98620875  0.95129125  1
  Na  Na2368  1  0.65625000  0.11120875  0.07629125  1
  Na  Na2369  1  0.65625000  0.11120875  0.20129125  1
  Na  Na2370  1  0.65625000  0.11120875  0.32629125  1
  Na  Na2371  1  0.65625000  0.11120875  0.45129125  1
  Na  Na2372  1  0.65625000  0.11120875  0.57629125  1
  Na  Na2373  1  0.65625000  0.11120875  0.70129125  1
  Na  Na2374  1  0.65625000  0.11120875  0.82629125  1
  Na  Na2375  1  0.65625000  0.11120875  0.95129125  1
  Na  Na2376  1  0.65625000  0.23620875  0.07629125  1
  Na  Na2377  1  0.65625000  0.23620875  0.20129125  1
  Na  Na2378  1  0.65625000  0.23620875  0.32629125  1
  Na  Na2379  1  0.65625000  0.23620875  0.45129125  1
  Na  Na2380  1  0.65625000  0.23620875  0.57629125  1
  Na  Na2381  1  0.65625000  0.23620875  0.70129125  1
  Na  Na2382  1  0.65625000  0.23620875  0.82629125  1
  Na  Na2383  1  0.65625000  0.23620875  0.95129125  1
  Na  Na2384  1  0.65625000  0.36120875  0.07629125  1
  Na  Na2385  1  0.65625000  0.36120875  0.20129125  1
  Na  Na2386  1  0.65625000  0.36120875  0.32629125  1
  Na  Na2387  1  0.65625000  0.36120875  0.45129125  1
  Na  Na2388  1  0.65625000  0.36120875  0.57629125  1
  Na  Na2389  1  0.65625000  0.36120875  0.70129125  1
  Na  Na2390  1  0.65625000  0.36120875  0.82629125  1
  Na  Na2391  1  0.65625000  0.36120875  0.95129125  1
  Na  Na2392  1  0.65625000  0.48620875  0.07629125  1
  Na  Na2393  1  0.65625000  0.48620875  0.20129125  1
  Na  Na2394  1  0.65625000  0.48620875  0.32629125  1
  Na  Na2395  1  0.65625000  0.48620875  0.45129125  1
  Na  Na2396  1  0.65625000  0.48620875  0.57629125  1
  Na  Na2397  1  0.65625000  0.48620875  0.70129125  1
  Na  Na2398  1  0.65625000  0.48620875  0.82629125  1
  Na  Na2399  1  0.65625000  0.48620875  0.95129125  1
  Na  Na2400  1  0.65625000  0.61120875  0.07629125  1
  Na  Na2401  1  0.65625000  0.61120875  0.20129125  1
  Na  Na2402  1  0.65625000  0.61120875  0.32629125  1
  Na  Na2403  1  0.65625000  0.61120875  0.45129125  1
  Na  Na2404  1  0.65625000  0.61120875  0.57629125  1
  Na  Na2405  1  0.65625000  0.61120875  0.70129125  1
  Na  Na2406  1  0.65625000  0.61120875  0.82629125  1
  Na  Na2407  1  0.65625000  0.61120875  0.95129125  1
  Na  Na2408  1  0.65625000  0.73620875  0.07629125  1
  Na  Na2409  1  0.65625000  0.73620875  0.20129125  1
  Na  Na2410  1  0.65625000  0.73620875  0.32629125  1
  Na  Na2411  1  0.65625000  0.73620875  0.45129125  1
  Na  Na2412  1  0.65625000  0.73620875  0.57629125  1
  Na  Na2413  1  0.65625000  0.73620875  0.70129125  1
  Na  Na2414  1  0.65625000  0.73620875  0.82629125  1
  Na  Na2415  1  0.65625000  0.73620875  0.95129125  1
  Na  Na2416  1  0.65625000  0.86120875  0.07629125  1
  Na  Na2417  1  0.65625000  0.86120875  0.20129125  1
  Na  Na2418  1  0.65625000  0.86120875  0.32629125  1
  Na  Na2419  1  0.65625000  0.86120875  0.45129125  1
  Na  Na2420  1  0.65625000  0.86120875  0.57629125  1
  Na  Na2421  1  0.65625000  0.86120875  0.70129125  1
  Na  Na2422  1  0.65625000  0.86120875  0.82629125  1
  Na  Na2423  1  0.65625000  0.86120875  0.95129125  1
  Na  Na2424  1  0.65625000  0.98620875  0.07629125  1
  Na  Na2425  1  0.65625000  0.98620875  0.20129125  1
  Na  Na2426  1  0.65625000  0.98620875  0.32629125  1
  Na  Na2427  1  0.65625000  0.98620875  0.45129125  1
  Na  Na2428  1  0.65625000  0.98620875  0.57629125  1
  Na  Na2429  1  0.65625000  0.98620875  0.70129125  1
  Na  Na2430  1  0.65625000  0.98620875  0.82629125  1
  Na  Na2431  1  0.65625000  0.98620875  0.95129125  1
  Na  Na2432  1  0.78125000  0.11120875  0.07629125  1
  Na  Na2433  1  0.78125000  0.11120875  0.20129125  1
  Na  Na2434  1  0.78125000  0.11120875  0.32629125  1
  Na  Na2435  1  0.78125000  0.11120875  0.45129125  1
  Na  Na2436  1  0.78125000  0.11120875  0.57629125  1
  Na  Na2437  1  0.78125000  0.11120875  0.70129125  1
  Na  Na2438  1  0.78125000  0.11120875  0.82629125  1
  Na  Na2439  1  0.78125000  0.11120875  0.95129125  1
  Na  Na2440  1  0.78125000  0.23620875  0.07629125  1
  Na  Na2441  1  0.78125000  0.23620875  0.20129125  1
  Na  Na2442  1  0.78125000  0.23620875  0.32629125  1
  Na  Na2443  1  0.78125000  0.23620875  0.45129125  1
  Na  Na2444  1  0.78125000  0.23620875  0.57629125  1
  Na  Na2445  1  0.78125000  0.23620875  0.70129125  1
  Na  Na2446  1  0.78125000  0.23620875  0.82629125  1
  Na  Na2447  1  0.78125000  0.23620875  0.95129125  1
  Na  Na2448  1  0.78125000  0.36120875  0.07629125  1
  Na  Na2449  1  0.78125000  0.36120875  0.20129125  1
  Na  Na2450  1  0.78125000  0.36120875  0.32629125  1
  Na  Na2451  1  0.78125000  0.36120875  0.45129125  1
  Na  Na2452  1  0.78125000  0.36120875  0.57629125  1
  Na  Na2453  1  0.78125000  0.36120875  0.70129125  1
  Na  Na2454  1  0.78125000  0.36120875  0.82629125  1
  Na  Na2455  1  0.78125000  0.36120875  0.95129125  1
  Na  Na2456  1  0.78125000  0.48620875  0.07629125  1
  Na  Na2457  1  0.78125000  0.48620875  0.20129125  1
  Na  Na2458  1  0.78125000  0.48620875  0.32629125  1
  Na  Na2459  1  0.78125000  0.48620875  0.45129125  1
  Na  Na2460  1  0.78125000  0.48620875  0.57629125  1
  Na  Na2461  1  0.78125000  0.48620875  0.70129125  1
  Na  Na2462  1  0.78125000  0.48620875  0.82629125  1
  Na  Na2463  1  0.78125000  0.48620875  0.95129125  1
  Na  Na2464  1  0.78125000  0.61120875  0.07629125  1
  Na  Na2465  1  0.78125000  0.61120875  0.20129125  1
  Na  Na2466  1  0.78125000  0.61120875  0.32629125  1
  Na  Na2467  1  0.78125000  0.61120875  0.45129125  1
  Na  Na2468  1  0.78125000  0.61120875  0.57629125  1
  Na  Na2469  1  0.78125000  0.61120875  0.70129125  1
  Na  Na2470  1  0.78125000  0.61120875  0.82629125  1
  Na  Na2471  1  0.78125000  0.61120875  0.95129125  1
  Na  Na2472  1  0.78125000  0.73620875  0.07629125  1
  Na  Na2473  1  0.78125000  0.73620875  0.20129125  1
  Na  Na2474  1  0.78125000  0.73620875  0.32629125  1
  Na  Na2475  1  0.78125000  0.73620875  0.45129125  1
  Na  Na2476  1  0.78125000  0.73620875  0.57629125  1
  Na  Na2477  1  0.78125000  0.73620875  0.70129125  1
  Na  Na2478  1  0.78125000  0.73620875  0.82629125  1
  Na  Na2479  1  0.78125000  0.73620875  0.95129125  1
  Na  Na2480  1  0.78125000  0.86120875  0.07629125  1
  Na  Na2481  1  0.78125000  0.86120875  0.20129125  1
  Na  Na2482  1  0.78125000  0.86120875  0.32629125  1
  Na  Na2483  1  0.78125000  0.86120875  0.45129125  1
  Na  Na2484  1  0.78125000  0.86120875  0.57629125  1
  Na  Na2485  1  0.78125000  0.86120875  0.70129125  1
  Na  Na2486  1  0.78125000  0.86120875  0.82629125  1
  Na  Na2487  1  0.78125000  0.86120875  0.95129125  1
  Na  Na2488  1  0.78125000  0.98620875  0.07629125  1
  Na  Na2489  1  0.78125000  0.98620875  0.20129125  1
  Na  Na2490  1  0.78125000  0.98620875  0.32629125  1
  Na  Na2491  1  0.78125000  0.98620875  0.45129125  1
  Na  Na2492  1  0.78125000  0.98620875  0.57629125  1
  Na  Na2493  1  0.78125000  0.98620875  0.70129125  1
  Na  Na2494  1  0.78125000  0.98620875  0.82629125  1
  Na  Na2495  1  0.78125000  0.98620875  0.95129125  1
  Na  Na2496  1  0.90625000  0.11120875  0.07629125  1
  Na  Na2497  1  0.90625000  0.11120875  0.20129125  1
  Na  Na2498  1  0.90625000  0.11120875  0.32629125  1
  Na  Na2499  1  0.90625000  0.11120875  0.45129125  1
  Na  Na2500  1  0.90625000  0.11120875  0.57629125  1
  Na  Na2501  1  0.90625000  0.11120875  0.70129125  1
  Na  Na2502  1  0.90625000  0.11120875  0.82629125  1
  Na  Na2503  1  0.90625000  0.11120875  0.95129125  1
  Na  Na2504  1  0.90625000  0.23620875  0.07629125  1
  Na  Na2505  1  0.90625000  0.23620875  0.20129125  1
  Na  Na2506  1  0.90625000  0.23620875  0.32629125  1
  Na  Na2507  1  0.90625000  0.23620875  0.45129125  1
  Na  Na2508  1  0.90625000  0.23620875  0.57629125  1
  Na  Na2509  1  0.90625000  0.23620875  0.70129125  1
  Na  Na2510  1  0.90625000  0.23620875  0.82629125  1
  Na  Na2511  1  0.90625000  0.23620875  0.95129125  1
  Na  Na2512  1  0.90625000  0.36120875  0.07629125  1
  Na  Na2513  1  0.90625000  0.36120875  0.20129125  1
  Na  Na2514  1  0.90625000  0.36120875  0.32629125  1
  Na  Na2515  1  0.90625000  0.36120875  0.45129125  1
  Na  Na2516  1  0.90625000  0.36120875  0.57629125  1
  Na  Na2517  1  0.90625000  0.36120875  0.70129125  1
  Na  Na2518  1  0.90625000  0.36120875  0.82629125  1
  Na  Na2519  1  0.90625000  0.36120875  0.95129125  1
  Na  Na2520  1  0.90625000  0.48620875  0.07629125  1
  Na  Na2521  1  0.90625000  0.48620875  0.20129125  1
  Na  Na2522  1  0.90625000  0.48620875  0.32629125  1
  Na  Na2523  1  0.90625000  0.48620875  0.45129125  1
  Na  Na2524  1  0.90625000  0.48620875  0.57629125  1
  Na  Na2525  1  0.90625000  0.48620875  0.70129125  1
  Na  Na2526  1  0.90625000  0.48620875  0.82629125  1
  Na  Na2527  1  0.90625000  0.48620875  0.95129125  1
  Na  Na2528  1  0.90625000  0.61120875  0.07629125  1
  Na  Na2529  1  0.90625000  0.61120875  0.20129125  1
  Na  Na2530  1  0.90625000  0.61120875  0.32629125  1
  Na  Na2531  1  0.90625000  0.61120875  0.45129125  1
  Na  Na2532  1  0.90625000  0.61120875  0.57629125  1
  Na  Na2533  1  0.90625000  0.61120875  0.70129125  1
  Na  Na2534  1  0.90625000  0.61120875  0.82629125  1
  Na  Na2535  1  0.90625000  0.61120875  0.95129125  1
  Na  Na2536  1  0.90625000  0.73620875  0.07629125  1
  Na  Na2537  1  0.90625000  0.73620875  0.20129125  1
  Na  Na2538  1  0.90625000  0.73620875  0.32629125  1
  Na  Na2539  1  0.90625000  0.73620875  0.45129125  1
  Na  Na2540  1  0.90625000  0.73620875  0.57629125  1
  Na  Na2541  1  0.90625000  0.73620875  0.70129125  1
  Na  Na2542  1  0.90625000  0.73620875  0.82629125  1
  Na  Na2543  1  0.90625000  0.73620875  0.95129125  1
  Na  Na2544  1  0.90625000  0.86120875  0.07629125  1
  Na  Na2545  1  0.90625000  0.86120875  0.20129125  1
  Na  Na2546  1  0.90625000  0.86120875  0.32629125  1
  Na  Na2547  1  0.90625000  0.86120875  0.45129125  1
  Na  Na2548  1  0.90625000  0.86120875  0.57629125  1
  Na  Na2549  1  0.90625000  0.86120875  0.70129125  1
  Na  Na2550  1  0.90625000  0.86120875  0.82629125  1
  Na  Na2551  1  0.90625000  0.86120875  0.95129125  1
  Na  Na2552  1  0.90625000  0.98620875  0.07629125  1
  Na  Na2553  1  0.90625000  0.98620875  0.20129125  1
  Na  Na2554  1  0.90625000  0.98620875  0.32629125  1
  Na  Na2555  1  0.90625000  0.98620875  0.45129125  1
  Na  Na2556  1  0.90625000  0.98620875  0.57629125  1
  Na  Na2557  1  0.90625000  0.98620875  0.70129125  1
  Na  Na2558  1  0.90625000  0.98620875  0.82629125  1
  Na  Na2559  1  0.90625000  0.98620875  0.95129125  1
  Na  Na2560  1  0.04870875  0.09375000  0.01379125  1
  Na  Na2561  1  0.04870875  0.09375000  0.13879125  1
  Na  Na2562  1  0.04870875  0.09375000  0.26379125  1
  Na  Na2563  1  0.04870875  0.09375000  0.38879125  1
  Na  Na2564  1  0.04870875  0.09375000  0.51379125  1
  Na  Na2565  1  0.04870875  0.09375000  0.63879125  1
  Na  Na2566  1  0.04870875  0.09375000  0.76379125  1
  Na  Na2567  1  0.04870875  0.09375000  0.88879125  1
  Na  Na2568  1  0.04870875  0.21875000  0.01379125  1
  Na  Na2569  1  0.04870875  0.21875000  0.13879125  1
  Na  Na2570  1  0.04870875  0.21875000  0.26379125  1
  Na  Na2571  1  0.04870875  0.21875000  0.38879125  1
  Na  Na2572  1  0.04870875  0.21875000  0.51379125  1
  Na  Na2573  1  0.04870875  0.21875000  0.63879125  1
  Na  Na2574  1  0.04870875  0.21875000  0.76379125  1
  Na  Na2575  1  0.04870875  0.21875000  0.88879125  1
  Na  Na2576  1  0.04870875  0.34375000  0.01379125  1
  Na  Na2577  1  0.04870875  0.34375000  0.13879125  1
  Na  Na2578  1  0.04870875  0.34375000  0.26379125  1
  Na  Na2579  1  0.04870875  0.34375000  0.38879125  1
  Na  Na2580  1  0.04870875  0.34375000  0.51379125  1
  Na  Na2581  1  0.04870875  0.34375000  0.63879125  1
  Na  Na2582  1  0.04870875  0.34375000  0.76379125  1
  Na  Na2583  1  0.04870875  0.34375000  0.88879125  1
  Na  Na2584  1  0.04870875  0.46875000  0.01379125  1
  Na  Na2585  1  0.04870875  0.46875000  0.13879125  1
  Na  Na2586  1  0.04870875  0.46875000  0.26379125  1
  Na  Na2587  1  0.04870875  0.46875000  0.38879125  1
  Na  Na2588  1  0.04870875  0.46875000  0.51379125  1
  Na  Na2589  1  0.04870875  0.46875000  0.63879125  1
  Na  Na2590  1  0.04870875  0.46875000  0.76379125  1
  Na  Na2591  1  0.04870875  0.46875000  0.88879125  1
  Na  Na2592  1  0.04870875  0.59375000  0.01379125  1
  Na  Na2593  1  0.04870875  0.59375000  0.13879125  1
  Na  Na2594  1  0.04870875  0.59375000  0.26379125  1
  Na  Na2595  1  0.04870875  0.59375000  0.38879125  1
  Na  Na2596  1  0.04870875  0.59375000  0.51379125  1
  Na  Na2597  1  0.04870875  0.59375000  0.63879125  1
  Na  Na2598  1  0.04870875  0.59375000  0.76379125  1
  Na  Na2599  1  0.04870875  0.59375000  0.88879125  1
  Na  Na2600  1  0.04870875  0.71875000  0.01379125  1
  Na  Na2601  1  0.04870875  0.71875000  0.13879125  1
  Na  Na2602  1  0.04870875  0.71875000  0.26379125  1
  Na  Na2603  1  0.04870875  0.71875000  0.38879125  1
  Na  Na2604  1  0.04870875  0.71875000  0.51379125  1
  Na  Na2605  1  0.04870875  0.71875000  0.63879125  1
  Na  Na2606  1  0.04870875  0.71875000  0.76379125  1
  Na  Na2607  1  0.04870875  0.71875000  0.88879125  1
  Na  Na2608  1  0.04870875  0.84375000  0.01379125  1
  Na  Na2609  1  0.04870875  0.84375000  0.13879125  1
  Na  Na2610  1  0.04870875  0.84375000  0.26379125  1
  Na  Na2611  1  0.04870875  0.84375000  0.38879125  1
  Na  Na2612  1  0.04870875  0.84375000  0.51379125  1
  Na  Na2613  1  0.04870875  0.84375000  0.63879125  1
  Na  Na2614  1  0.04870875  0.84375000  0.76379125  1
  Na  Na2615  1  0.04870875  0.84375000  0.88879125  1
  Na  Na2616  1  0.04870875  0.96875000  0.01379125  1
  Na  Na2617  1  0.04870875  0.96875000  0.13879125  1
  Na  Na2618  1  0.04870875  0.96875000  0.26379125  1
  Na  Na2619  1  0.04870875  0.96875000  0.38879125  1
  Na  Na2620  1  0.04870875  0.96875000  0.51379125  1
  Na  Na2621  1  0.04870875  0.96875000  0.63879125  1
  Na  Na2622  1  0.04870875  0.96875000  0.76379125  1
  Na  Na2623  1  0.04870875  0.96875000  0.88879125  1
  Na  Na2624  1  0.17370875  0.09375000  0.01379125  1
  Na  Na2625  1  0.17370875  0.09375000  0.13879125  1
  Na  Na2626  1  0.17370875  0.09375000  0.26379125  1
  Na  Na2627  1  0.17370875  0.09375000  0.38879125  1
  Na  Na2628  1  0.17370875  0.09375000  0.51379125  1
  Na  Na2629  1  0.17370875  0.09375000  0.63879125  1
  Na  Na2630  1  0.17370875  0.09375000  0.76379125  1
  Na  Na2631  1  0.17370875  0.09375000  0.88879125  1
  Na  Na2632  1  0.17370875  0.21875000  0.01379125  1
  Na  Na2633  1  0.17370875  0.21875000  0.13879125  1
  Na  Na2634  1  0.17370875  0.21875000  0.26379125  1
  Na  Na2635  1  0.17370875  0.21875000  0.38879125  1
  Na  Na2636  1  0.17370875  0.21875000  0.51379125  1
  Na  Na2637  1  0.17370875  0.21875000  0.63879125  1
  Na  Na2638  1  0.17370875  0.21875000  0.76379125  1
  Na  Na2639  1  0.17370875  0.21875000  0.88879125  1
  Na  Na2640  1  0.17370875  0.34375000  0.01379125  1
  Na  Na2641  1  0.17370875  0.34375000  0.13879125  1
  Na  Na2642  1  0.17370875  0.34375000  0.26379125  1
  Na  Na2643  1  0.17370875  0.34375000  0.38879125  1
  Na  Na2644  1  0.17370875  0.34375000  0.51379125  1
  Na  Na2645  1  0.17370875  0.34375000  0.63879125  1
  Na  Na2646  1  0.17370875  0.34375000  0.76379125  1
  Na  Na2647  1  0.17370875  0.34375000  0.88879125  1
  Na  Na2648  1  0.17370875  0.46875000  0.01379125  1
  Na  Na2649  1  0.17370875  0.46875000  0.13879125  1
  Na  Na2650  1  0.17370875  0.46875000  0.26379125  1
  Na  Na2651  1  0.17370875  0.46875000  0.38879125  1
  Na  Na2652  1  0.17370875  0.46875000  0.51379125  1
  Na  Na2653  1  0.17370875  0.46875000  0.63879125  1
  Na  Na2654  1  0.17370875  0.46875000  0.76379125  1
  Na  Na2655  1  0.17370875  0.46875000  0.88879125  1
  Na  Na2656  1  0.17370875  0.59375000  0.01379125  1
  Na  Na2657  1  0.17370875  0.59375000  0.13879125  1
  Na  Na2658  1  0.17370875  0.59375000  0.26379125  1
  Na  Na2659  1  0.17370875  0.59375000  0.38879125  1
  Na  Na2660  1  0.17370875  0.59375000  0.51379125  1
  Na  Na2661  1  0.17370875  0.59375000  0.63879125  1
  Na  Na2662  1  0.17370875  0.59375000  0.76379125  1
  Na  Na2663  1  0.17370875  0.59375000  0.88879125  1
  Na  Na2664  1  0.17370875  0.71875000  0.01379125  1
  Na  Na2665  1  0.17370875  0.71875000  0.13879125  1
  Na  Na2666  1  0.17370875  0.71875000  0.26379125  1
  Na  Na2667  1  0.17370875  0.71875000  0.38879125  1
  Na  Na2668  1  0.17370875  0.71875000  0.51379125  1
  Na  Na2669  1  0.17370875  0.71875000  0.63879125  1
  Na  Na2670  1  0.17370875  0.71875000  0.76379125  1
  Na  Na2671  1  0.17370875  0.71875000  0.88879125  1
  Na  Na2672  1  0.17370875  0.84375000  0.01379125  1
  Na  Na2673  1  0.17370875  0.84375000  0.13879125  1
  Na  Na2674  1  0.17370875  0.84375000  0.26379125  1
  Na  Na2675  1  0.17370875  0.84375000  0.38879125  1
  Na  Na2676  1  0.17370875  0.84375000  0.51379125  1
  Na  Na2677  1  0.17370875  0.84375000  0.63879125  1
  Na  Na2678  1  0.17370875  0.84375000  0.76379125  1
  Na  Na2679  1  0.17370875  0.84375000  0.88879125  1
  Na  Na2680  1  0.17370875  0.96875000  0.01379125  1
  Na  Na2681  1  0.17370875  0.96875000  0.13879125  1
  Na  Na2682  1  0.17370875  0.96875000  0.26379125  1
  Na  Na2683  1  0.17370875  0.96875000  0.38879125  1
  Na  Na2684  1  0.17370875  0.96875000  0.51379125  1
  Na  Na2685  1  0.17370875  0.96875000  0.63879125  1
  Na  Na2686  1  0.17370875  0.96875000  0.76379125  1
  Na  Na2687  1  0.17370875  0.96875000  0.88879125  1
  Na  Na2688  1  0.29870875  0.09375000  0.01379125  1
  Na  Na2689  1  0.29870875  0.09375000  0.13879125  1
  Na  Na2690  1  0.29870875  0.09375000  0.26379125  1
  Na  Na2691  1  0.29870875  0.09375000  0.38879125  1
  Na  Na2692  1  0.29870875  0.09375000  0.51379125  1
  Na  Na2693  1  0.29870875  0.09375000  0.63879125  1
  Na  Na2694  1  0.29870875  0.09375000  0.76379125  1
  Na  Na2695  1  0.29870875  0.09375000  0.88879125  1
  Na  Na2696  1  0.29870875  0.21875000  0.01379125  1
  Na  Na2697  1  0.29870875  0.21875000  0.13879125  1
  Na  Na2698  1  0.29870875  0.21875000  0.26379125  1
  Na  Na2699  1  0.29870875  0.21875000  0.38879125  1
  Na  Na2700  1  0.29870875  0.21875000  0.51379125  1
  Na  Na2701  1  0.29870875  0.21875000  0.63879125  1
  Na  Na2702  1  0.29870875  0.21875000  0.76379125  1
  Na  Na2703  1  0.29870875  0.21875000  0.88879125  1
  Na  Na2704  1  0.29870875  0.34375000  0.01379125  1
  Na  Na2705  1  0.29870875  0.34375000  0.13879125  1
  Na  Na2706  1  0.29870875  0.34375000  0.26379125  1
  Na  Na2707  1  0.29870875  0.34375000  0.38879125  1
  Na  Na2708  1  0.29870875  0.34375000  0.51379125  1
  Na  Na2709  1  0.29870875  0.34375000  0.63879125  1
  Na  Na2710  1  0.29870875  0.34375000  0.76379125  1
  Na  Na2711  1  0.29870875  0.34375000  0.88879125  1
  Na  Na2712  1  0.29870875  0.46875000  0.01379125  1
  Na  Na2713  1  0.29870875  0.46875000  0.13879125  1
  Na  Na2714  1  0.29870875  0.46875000  0.26379125  1
  Na  Na2715  1  0.29870875  0.46875000  0.38879125  1
  Na  Na2716  1  0.29870875  0.46875000  0.51379125  1
  Na  Na2717  1  0.29870875  0.46875000  0.63879125  1
  Na  Na2718  1  0.29870875  0.46875000  0.76379125  1
  Na  Na2719  1  0.29870875  0.46875000  0.88879125  1
  Na  Na2720  1  0.29870875  0.59375000  0.01379125  1
  Na  Na2721  1  0.29870875  0.59375000  0.13879125  1
  Na  Na2722  1  0.29870875  0.59375000  0.26379125  1
  Na  Na2723  1  0.29870875  0.59375000  0.38879125  1
  Na  Na2724  1  0.29870875  0.59375000  0.51379125  1
  Na  Na2725  1  0.29870875  0.59375000  0.63879125  1
  Na  Na2726  1  0.29870875  0.59375000  0.76379125  1
  Na  Na2727  1  0.29870875  0.59375000  0.88879125  1
  Na  Na2728  1  0.29870875  0.71875000  0.01379125  1
  Na  Na2729  1  0.29870875  0.71875000  0.13879125  1
  Na  Na2730  1  0.29870875  0.71875000  0.26379125  1
  Na  Na2731  1  0.29870875  0.71875000  0.38879125  1
  Na  Na2732  1  0.29870875  0.71875000  0.51379125  1
  Na  Na2733  1  0.29870875  0.71875000  0.63879125  1
  Na  Na2734  1  0.29870875  0.71875000  0.76379125  1
  Na  Na2735  1  0.29870875  0.71875000  0.88879125  1
  Na  Na2736  1  0.29870875  0.84375000  0.01379125  1
  Na  Na2737  1  0.29870875  0.84375000  0.13879125  1
  Na  Na2738  1  0.29870875  0.84375000  0.26379125  1
  Na  Na2739  1  0.29870875  0.84375000  0.38879125  1
  Na  Na2740  1  0.29870875  0.84375000  0.51379125  1
  Na  Na2741  1  0.29870875  0.84375000  0.63879125  1
  Na  Na2742  1  0.29870875  0.84375000  0.76379125  1
  Na  Na2743  1  0.29870875  0.84375000  0.88879125  1
  Na  Na2744  1  0.29870875  0.96875000  0.01379125  1
  Na  Na2745  1  0.29870875  0.96875000  0.13879125  1
  Na  Na2746  1  0.29870875  0.96875000  0.26379125  1
  Na  Na2747  1  0.29870875  0.96875000  0.38879125  1
  Na  Na2748  1  0.29870875  0.96875000  0.51379125  1
  Na  Na2749  1  0.29870875  0.96875000  0.63879125  1
  Na  Na2750  1  0.29870875  0.96875000  0.76379125  1
  Na  Na2751  1  0.29870875  0.96875000  0.88879125  1
  Na  Na2752  1  0.42370875  0.09375000  0.01379125  1
  Na  Na2753  1  0.42370875  0.09375000  0.13879125  1
  Na  Na2754  1  0.42370875  0.09375000  0.26379125  1
  Na  Na2755  1  0.42370875  0.09375000  0.38879125  1
  Na  Na2756  1  0.42370875  0.09375000  0.51379125  1
  Na  Na2757  1  0.42370875  0.09375000  0.63879125  1
  Na  Na2758  1  0.42370875  0.09375000  0.76379125  1
  Na  Na2759  1  0.42370875  0.09375000  0.88879125  1
  Na  Na2760  1  0.42370875  0.21875000  0.01379125  1
  Na  Na2761  1  0.42370875  0.21875000  0.13879125  1
  Na  Na2762  1  0.42370875  0.21875000  0.26379125  1
  Na  Na2763  1  0.42370875  0.21875000  0.38879125  1
  Na  Na2764  1  0.42370875  0.21875000  0.51379125  1
  Na  Na2765  1  0.42370875  0.21875000  0.63879125  1
  Na  Na2766  1  0.42370875  0.21875000  0.76379125  1
  Na  Na2767  1  0.42370875  0.21875000  0.88879125  1
  Na  Na2768  1  0.42370875  0.34375000  0.01379125  1
  Na  Na2769  1  0.42370875  0.34375000  0.13879125  1
  Na  Na2770  1  0.42370875  0.34375000  0.26379125  1
  Na  Na2771  1  0.42370875  0.34375000  0.38879125  1
  Na  Na2772  1  0.42370875  0.34375000  0.51379125  1
  Na  Na2773  1  0.42370875  0.34375000  0.63879125  1
  Na  Na2774  1  0.42370875  0.34375000  0.76379125  1
  Na  Na2775  1  0.42370875  0.34375000  0.88879125  1
  Na  Na2776  1  0.42370875  0.46875000  0.01379125  1
  Na  Na2777  1  0.42370875  0.46875000  0.13879125  1
  Na  Na2778  1  0.42370875  0.46875000  0.26379125  1
  Na  Na2779  1  0.42370875  0.46875000  0.38879125  1
  Na  Na2780  1  0.42370875  0.46875000  0.51379125  1
  Na  Na2781  1  0.42370875  0.46875000  0.63879125  1
  Na  Na2782  1  0.42370875  0.46875000  0.76379125  1
  Na  Na2783  1  0.42370875  0.46875000  0.88879125  1
  Na  Na2784  1  0.42370875  0.59375000  0.01379125  1
  Na  Na2785  1  0.42370875  0.59375000  0.13879125  1
  Na  Na2786  1  0.42370875  0.59375000  0.26379125  1
  Na  Na2787  1  0.42370875  0.59375000  0.38879125  1
  Na  Na2788  1  0.42370875  0.59375000  0.51379125  1
  Na  Na2789  1  0.42370875  0.59375000  0.63879125  1
  Na  Na2790  1  0.42370875  0.59375000  0.76379125  1
  Na  Na2791  1  0.42370875  0.59375000  0.88879125  1
  Na  Na2792  1  0.42370875  0.71875000  0.01379125  1
  Na  Na2793  1  0.42370875  0.71875000  0.13879125  1
  Na  Na2794  1  0.42370875  0.71875000  0.26379125  1
  Na  Na2795  1  0.42370875  0.71875000  0.38879125  1
  Na  Na2796  1  0.42370875  0.71875000  0.51379125  1
  Na  Na2797  1  0.42370875  0.71875000  0.63879125  1
  Na  Na2798  1  0.42370875  0.71875000  0.76379125  1
  Na  Na2799  1  0.42370875  0.71875000  0.88879125  1
  Na  Na2800  1  0.42370875  0.84375000  0.01379125  1
  Na  Na2801  1  0.42370875  0.84375000  0.13879125  1
  Na  Na2802  1  0.42370875  0.84375000  0.26379125  1
  Na  Na2803  1  0.42370875  0.84375000  0.38879125  1
  Na  Na2804  1  0.42370875  0.84375000  0.51379125  1
  Na  Na2805  1  0.42370875  0.84375000  0.63879125  1
  Na  Na2806  1  0.42370875  0.84375000  0.76379125  1
  Na  Na2807  1  0.42370875  0.84375000  0.88879125  1
  Na  Na2808  1  0.42370875  0.96875000  0.01379125  1
  Na  Na2809  1  0.42370875  0.96875000  0.13879125  1
  Na  Na2810  1  0.42370875  0.96875000  0.26379125  1
  Na  Na2811  1  0.42370875  0.96875000  0.38879125  1
  Na  Na2812  1  0.42370875  0.96875000  0.51379125  1
  Na  Na2813  1  0.42370875  0.96875000  0.63879125  1
  Na  Na2814  1  0.42370875  0.96875000  0.76379125  1
  Na  Na2815  1  0.42370875  0.96875000  0.88879125  1
  Na  Na2816  1  0.54870875  0.09375000  0.01379125  1
  Na  Na2817  1  0.54870875  0.09375000  0.13879125  1
  Na  Na2818  1  0.54870875  0.09375000  0.26379125  1
  Na  Na2819  1  0.54870875  0.09375000  0.38879125  1
  Na  Na2820  1  0.54870875  0.09375000  0.51379125  1
  Na  Na2821  1  0.54870875  0.09375000  0.63879125  1
  Na  Na2822  1  0.54870875  0.09375000  0.76379125  1
  Na  Na2823  1  0.54870875  0.09375000  0.88879125  1
  Na  Na2824  1  0.54870875  0.21875000  0.01379125  1
  Na  Na2825  1  0.54870875  0.21875000  0.13879125  1
  Na  Na2826  1  0.54870875  0.21875000  0.26379125  1
  Na  Na2827  1  0.54870875  0.21875000  0.38879125  1
  Na  Na2828  1  0.54870875  0.21875000  0.51379125  1
  Na  Na2829  1  0.54870875  0.21875000  0.63879125  1
  Na  Na2830  1  0.54870875  0.21875000  0.76379125  1
  Na  Na2831  1  0.54870875  0.21875000  0.88879125  1
  Na  Na2832  1  0.54870875  0.34375000  0.01379125  1
  Na  Na2833  1  0.54870875  0.34375000  0.13879125  1
  Na  Na2834  1  0.54870875  0.34375000  0.26379125  1
  Na  Na2835  1  0.54870875  0.34375000  0.38879125  1
  Na  Na2836  1  0.54870875  0.34375000  0.51379125  1
  Na  Na2837  1  0.54870875  0.34375000  0.63879125  1
  Na  Na2838  1  0.54870875  0.34375000  0.76379125  1
  Na  Na2839  1  0.54870875  0.34375000  0.88879125  1
  Na  Na2840  1  0.54870875  0.46875000  0.01379125  1
  Na  Na2841  1  0.54870875  0.46875000  0.13879125  1
  Na  Na2842  1  0.54870875  0.46875000  0.26379125  1
  Na  Na2843  1  0.54870875  0.46875000  0.38879125  1
  Na  Na2844  1  0.54870875  0.46875000  0.51379125  1
  Na  Na2845  1  0.54870875  0.46875000  0.63879125  1
  Na  Na2846  1  0.54870875  0.46875000  0.76379125  1
  Na  Na2847  1  0.54870875  0.46875000  0.88879125  1
  Na  Na2848  1  0.54870875  0.59375000  0.01379125  1
  Na  Na2849  1  0.54870875  0.59375000  0.13879125  1
  Na  Na2850  1  0.54870875  0.59375000  0.26379125  1
  Na  Na2851  1  0.54870875  0.59375000  0.38879125  1
  Na  Na2852  1  0.54870875  0.59375000  0.51379125  1
  Na  Na2853  1  0.54870875  0.59375000  0.63879125  1
  Na  Na2854  1  0.54870875  0.59375000  0.76379125  1
  Na  Na2855  1  0.54870875  0.59375000  0.88879125  1
  Na  Na2856  1  0.54870875  0.71875000  0.01379125  1
  Na  Na2857  1  0.54870875  0.71875000  0.13879125  1
  Na  Na2858  1  0.54870875  0.71875000  0.26379125  1
  Na  Na2859  1  0.54870875  0.71875000  0.38879125  1
  Na  Na2860  1  0.54870875  0.71875000  0.51379125  1
  Na  Na2861  1  0.54870875  0.71875000  0.63879125  1
  Na  Na2862  1  0.54870875  0.71875000  0.76379125  1
  Na  Na2863  1  0.54870875  0.71875000  0.88879125  1
  Na  Na2864  1  0.54870875  0.84375000  0.01379125  1
  Na  Na2865  1  0.54870875  0.84375000  0.13879125  1
  Na  Na2866  1  0.54870875  0.84375000  0.26379125  1
  Na  Na2867  1  0.54870875  0.84375000  0.38879125  1
  Na  Na2868  1  0.54870875  0.84375000  0.51379125  1
  Na  Na2869  1  0.54870875  0.84375000  0.63879125  1
  Na  Na2870  1  0.54870875  0.84375000  0.76379125  1
  Na  Na2871  1  0.54870875  0.84375000  0.88879125  1
  Na  Na2872  1  0.54870875  0.96875000  0.01379125  1
  Na  Na2873  1  0.54870875  0.96875000  0.13879125  1
  Na  Na2874  1  0.54870875  0.96875000  0.26379125  1
  Na  Na2875  1  0.54870875  0.96875000  0.38879125  1
  Na  Na2876  1  0.54870875  0.96875000  0.51379125  1
  Na  Na2877  1  0.54870875  0.96875000  0.63879125  1
  Na  Na2878  1  0.54870875  0.96875000  0.76379125  1
  Na  Na2879  1  0.54870875  0.96875000  0.88879125  1
  Na  Na2880  1  0.67370875  0.09375000  0.01379125  1
  Na  Na2881  1  0.67370875  0.09375000  0.13879125  1
  Na  Na2882  1  0.67370875  0.09375000  0.26379125  1
  Na  Na2883  1  0.67370875  0.09375000  0.38879125  1
  Na  Na2884  1  0.67370875  0.09375000  0.51379125  1
  Na  Na2885  1  0.67370875  0.09375000  0.63879125  1
  Na  Na2886  1  0.67370875  0.09375000  0.76379125  1
  Na  Na2887  1  0.67370875  0.09375000  0.88879125  1
  Na  Na2888  1  0.67370875  0.21875000  0.01379125  1
  Na  Na2889  1  0.67370875  0.21875000  0.13879125  1
  Na  Na2890  1  0.67370875  0.21875000  0.26379125  1
  Na  Na2891  1  0.67370875  0.21875000  0.38879125  1
  Na  Na2892  1  0.67370875  0.21875000  0.51379125  1
  Na  Na2893  1  0.67370875  0.21875000  0.63879125  1
  Na  Na2894  1  0.67370875  0.21875000  0.76379125  1
  Na  Na2895  1  0.67370875  0.21875000  0.88879125  1
  Na  Na2896  1  0.67370875  0.34375000  0.01379125  1
  Na  Na2897  1  0.67370875  0.34375000  0.13879125  1
  Na  Na2898  1  0.67370875  0.34375000  0.26379125  1
  Na  Na2899  1  0.67370875  0.34375000  0.38879125  1
  Na  Na2900  1  0.67370875  0.34375000  0.51379125  1
  Na  Na2901  1  0.67370875  0.34375000  0.63879125  1
  Na  Na2902  1  0.67370875  0.34375000  0.76379125  1
  Na  Na2903  1  0.67370875  0.34375000  0.88879125  1
  Na  Na2904  1  0.67370875  0.46875000  0.01379125  1
  Na  Na2905  1  0.67370875  0.46875000  0.13879125  1
  Na  Na2906  1  0.67370875  0.46875000  0.26379125  1
  Na  Na2907  1  0.67370875  0.46875000  0.38879125  1
  Na  Na2908  1  0.67370875  0.46875000  0.51379125  1
  Na  Na2909  1  0.67370875  0.46875000  0.63879125  1
  Na  Na2910  1  0.67370875  0.46875000  0.76379125  1
  Na  Na2911  1  0.67370875  0.46875000  0.88879125  1
  Na  Na2912  1  0.67370875  0.59375000  0.01379125  1
  Na  Na2913  1  0.67370875  0.59375000  0.13879125  1
  Na  Na2914  1  0.67370875  0.59375000  0.26379125  1
  Na  Na2915  1  0.67370875  0.59375000  0.38879125  1
  Na  Na2916  1  0.67370875  0.59375000  0.51379125  1
  Na  Na2917  1  0.67370875  0.59375000  0.63879125  1
  Na  Na2918  1  0.67370875  0.59375000  0.76379125  1
  Na  Na2919  1  0.67370875  0.59375000  0.88879125  1
  Na  Na2920  1  0.67370875  0.71875000  0.01379125  1
  Na  Na2921  1  0.67370875  0.71875000  0.13879125  1
  Na  Na2922  1  0.67370875  0.71875000  0.26379125  1
  Na  Na2923  1  0.67370875  0.71875000  0.38879125  1
  Na  Na2924  1  0.67370875  0.71875000  0.51379125  1
  Na  Na2925  1  0.67370875  0.71875000  0.63879125  1
  Na  Na2926  1  0.67370875  0.71875000  0.76379125  1
  Na  Na2927  1  0.67370875  0.71875000  0.88879125  1
  Na  Na2928  1  0.67370875  0.84375000  0.01379125  1
  Na  Na2929  1  0.67370875  0.84375000  0.13879125  1
  Na  Na2930  1  0.67370875  0.84375000  0.26379125  1
  Na  Na2931  1  0.67370875  0.84375000  0.38879125  1
  Na  Na2932  1  0.67370875  0.84375000  0.51379125  1
  Na  Na2933  1  0.67370875  0.84375000  0.63879125  1
  Na  Na2934  1  0.67370875  0.84375000  0.76379125  1
  Na  Na2935  1  0.67370875  0.84375000  0.88879125  1
  Na  Na2936  1  0.67370875  0.96875000  0.01379125  1
  Na  Na2937  1  0.67370875  0.96875000  0.13879125  1
  Na  Na2938  1  0.67370875  0.96875000  0.26379125  1
  Na  Na2939  1  0.67370875  0.96875000  0.38879125  1
  Na  Na2940  1  0.67370875  0.96875000  0.51379125  1
  Na  Na2941  1  0.67370875  0.96875000  0.63879125  1
  Na  Na2942  1  0.67370875  0.96875000  0.76379125  1
  Na  Na2943  1  0.67370875  0.96875000  0.88879125  1
  Na  Na2944  1  0.79870875  0.09375000  0.01379125  1
  Na  Na2945  1  0.79870875  0.09375000  0.13879125  1
  Na  Na2946  1  0.79870875  0.09375000  0.26379125  1
  Na  Na2947  1  0.79870875  0.09375000  0.38879125  1
  Na  Na2948  1  0.79870875  0.09375000  0.51379125  1
  Na  Na2949  1  0.79870875  0.09375000  0.63879125  1
  Na  Na2950  1  0.79870875  0.09375000  0.76379125  1
  Na  Na2951  1  0.79870875  0.09375000  0.88879125  1
  Na  Na2952  1  0.79870875  0.21875000  0.01379125  1
  Na  Na2953  1  0.79870875  0.21875000  0.13879125  1
  Na  Na2954  1  0.79870875  0.21875000  0.26379125  1
  Na  Na2955  1  0.79870875  0.21875000  0.38879125  1
  Na  Na2956  1  0.79870875  0.21875000  0.51379125  1
  Na  Na2957  1  0.79870875  0.21875000  0.63879125  1
  Na  Na2958  1  0.79870875  0.21875000  0.76379125  1
  Na  Na2959  1  0.79870875  0.21875000  0.88879125  1
  Na  Na2960  1  0.79870875  0.34375000  0.01379125  1
  Na  Na2961  1  0.79870875  0.34375000  0.13879125  1
  Na  Na2962  1  0.79870875  0.34375000  0.26379125  1
  Na  Na2963  1  0.79870875  0.34375000  0.38879125  1
  Na  Na2964  1  0.79870875  0.34375000  0.51379125  1
  Na  Na2965  1  0.79870875  0.34375000  0.63879125  1
  Na  Na2966  1  0.79870875  0.34375000  0.76379125  1
  Na  Na2967  1  0.79870875  0.34375000  0.88879125  1
  Na  Na2968  1  0.79870875  0.46875000  0.01379125  1
  Na  Na2969  1  0.79870875  0.46875000  0.13879125  1
  Na  Na2970  1  0.79870875  0.46875000  0.26379125  1
  Na  Na2971  1  0.79870875  0.46875000  0.38879125  1
  Na  Na2972  1  0.79870875  0.46875000  0.51379125  1
  Na  Na2973  1  0.79870875  0.46875000  0.63879125  1
  Na  Na2974  1  0.79870875  0.46875000  0.76379125  1
  Na  Na2975  1  0.79870875  0.46875000  0.88879125  1
  Na  Na2976  1  0.79870875  0.59375000  0.01379125  1
  Na  Na2977  1  0.79870875  0.59375000  0.13879125  1
  Na  Na2978  1  0.79870875  0.59375000  0.26379125  1
  Na  Na2979  1  0.79870875  0.59375000  0.38879125  1
  Na  Na2980  1  0.79870875  0.59375000  0.51379125  1
  Na  Na2981  1  0.79870875  0.59375000  0.63879125  1
  Na  Na2982  1  0.79870875  0.59375000  0.76379125  1
  Na  Na2983  1  0.79870875  0.59375000  0.88879125  1
  Na  Na2984  1  0.79870875  0.71875000  0.01379125  1
  Na  Na2985  1  0.79870875  0.71875000  0.13879125  1
  Na  Na2986  1  0.79870875  0.71875000  0.26379125  1
  Na  Na2987  1  0.79870875  0.71875000  0.38879125  1
  Na  Na2988  1  0.79870875  0.71875000  0.51379125  1
  Na  Na2989  1  0.79870875  0.71875000  0.63879125  1
  Na  Na2990  1  0.79870875  0.71875000  0.76379125  1
  Na  Na2991  1  0.79870875  0.71875000  0.88879125  1
  Na  Na2992  1  0.79870875  0.84375000  0.01379125  1
  Na  Na2993  1  0.79870875  0.84375000  0.13879125  1
  Na  Na2994  1  0.79870875  0.84375000  0.26379125  1
  Na  Na2995  1  0.79870875  0.84375000  0.38879125  1
  Na  Na2996  1  0.79870875  0.84375000  0.51379125  1
  Na  Na2997  1  0.79870875  0.84375000  0.63879125  1
  Na  Na2998  1  0.79870875  0.84375000  0.76379125  1
  Na  Na2999  1  0.79870875  0.84375000  0.88879125  1
  Na  Na3000  1  0.79870875  0.96875000  0.01379125  1
  Na  Na3001  1  0.79870875  0.96875000  0.13879125  1
  Na  Na3002  1  0.79870875  0.96875000  0.26379125  1
  Na  Na3003  1  0.79870875  0.96875000  0.38879125  1
  Na  Na3004  1  0.79870875  0.96875000  0.51379125  1
  Na  Na3005  1  0.79870875  0.96875000  0.63879125  1
  Na  Na3006  1  0.79870875  0.96875000  0.76379125  1
  Na  Na3007  1  0.79870875  0.96875000  0.88879125  1
  Na  Na3008  1  0.92370875  0.09375000  0.01379125  1
  Na  Na3009  1  0.92370875  0.09375000  0.13879125  1
  Na  Na3010  1  0.92370875  0.09375000  0.26379125  1
  Na  Na3011  1  0.92370875  0.09375000  0.38879125  1
  Na  Na3012  1  0.92370875  0.09375000  0.51379125  1
  Na  Na3013  1  0.92370875  0.09375000  0.63879125  1
  Na  Na3014  1  0.92370875  0.09375000  0.76379125  1
  Na  Na3015  1  0.92370875  0.09375000  0.88879125  1
  Na  Na3016  1  0.92370875  0.21875000  0.01379125  1
  Na  Na3017  1  0.92370875  0.21875000  0.13879125  1
  Na  Na3018  1  0.92370875  0.21875000  0.26379125  1
  Na  Na3019  1  0.92370875  0.21875000  0.38879125  1
  Na  Na3020  1  0.92370875  0.21875000  0.51379125  1
  Na  Na3021  1  0.92370875  0.21875000  0.63879125  1
  Na  Na3022  1  0.92370875  0.21875000  0.76379125  1
  Na  Na3023  1  0.92370875  0.21875000  0.88879125  1
  Na  Na3024  1  0.92370875  0.34375000  0.01379125  1
  Na  Na3025  1  0.92370875  0.34375000  0.13879125  1
  Na  Na3026  1  0.92370875  0.34375000  0.26379125  1
  Na  Na3027  1  0.92370875  0.34375000  0.38879125  1
  Na  Na3028  1  0.92370875  0.34375000  0.51379125  1
  Na  Na3029  1  0.92370875  0.34375000  0.63879125  1
  Na  Na3030  1  0.92370875  0.34375000  0.76379125  1
  Na  Na3031  1  0.92370875  0.34375000  0.88879125  1
  Na  Na3032  1  0.92370875  0.46875000  0.01379125  1
  Na  Na3033  1  0.92370875  0.46875000  0.13879125  1
  Na  Na3034  1  0.92370875  0.46875000  0.26379125  1
  Na  Na3035  1  0.92370875  0.46875000  0.38879125  1
  Na  Na3036  1  0.92370875  0.46875000  0.51379125  1
  Na  Na3037  1  0.92370875  0.46875000  0.63879125  1
  Na  Na3038  1  0.92370875  0.46875000  0.76379125  1
  Na  Na3039  1  0.92370875  0.46875000  0.88879125  1
  Na  Na3040  1  0.92370875  0.59375000  0.01379125  1
  Na  Na3041  1  0.92370875  0.59375000  0.13879125  1
  Na  Na3042  1  0.92370875  0.59375000  0.26379125  1
  Na  Na3043  1  0.92370875  0.59375000  0.38879125  1
  Na  Na3044  1  0.92370875  0.59375000  0.51379125  1
  Na  Na3045  1  0.92370875  0.59375000  0.63879125  1
  Na  Na3046  1  0.92370875  0.59375000  0.76379125  1
  Na  Na3047  1  0.92370875  0.59375000  0.88879125  1
  Na  Na3048  1  0.92370875  0.71875000  0.01379125  1
  Na  Na3049  1  0.92370875  0.71875000  0.13879125  1
  Na  Na3050  1  0.92370875  0.71875000  0.26379125  1
  Na  Na3051  1  0.92370875  0.71875000  0.38879125  1
  Na  Na3052  1  0.92370875  0.71875000  0.51379125  1
  Na  Na3053  1  0.92370875  0.71875000  0.63879125  1
  Na  Na3054  1  0.92370875  0.71875000  0.76379125  1
  Na  Na3055  1  0.92370875  0.71875000  0.88879125  1
  Na  Na3056  1  0.92370875  0.84375000  0.01379125  1
  Na  Na3057  1  0.92370875  0.84375000  0.13879125  1
  Na  Na3058  1  0.92370875  0.84375000  0.26379125  1
  Na  Na3059  1  0.92370875  0.84375000  0.38879125  1
  Na  Na3060  1  0.92370875  0.84375000  0.51379125  1
  Na  Na3061  1  0.92370875  0.84375000  0.63879125  1
  Na  Na3062  1  0.92370875  0.84375000  0.76379125  1
  Na  Na3063  1  0.92370875  0.84375000  0.88879125  1
  Na  Na3064  1  0.92370875  0.96875000  0.01379125  1
  Na  Na3065  1  0.92370875  0.96875000  0.13879125  1
  Na  Na3066  1  0.92370875  0.96875000  0.26379125  1
  Na  Na3067  1  0.92370875  0.96875000  0.38879125  1
  Na  Na3068  1  0.92370875  0.96875000  0.51379125  1
  Na  Na3069  1  0.92370875  0.96875000  0.63879125  1
  Na  Na3070  1  0.92370875  0.96875000  0.76379125  1
  Na  Na3071  1  0.92370875  0.96875000  0.88879125  1
  Na  Na3072  1  0.09375000  0.01379125  0.04870875  1
  Na  Na3073  1  0.09375000  0.01379125  0.17370875  1
  Na  Na3074  1  0.09375000  0.01379125  0.29870875  1
  Na  Na3075  1  0.09375000  0.01379125  0.42370875  1
  Na  Na3076  1  0.09375000  0.01379125  0.54870875  1
  Na  Na3077  1  0.09375000  0.01379125  0.67370875  1
  Na  Na3078  1  0.09375000  0.01379125  0.79870875  1
  Na  Na3079  1  0.09375000  0.01379125  0.92370875  1
  Na  Na3080  1  0.09375000  0.13879125  0.04870875  1
  Na  Na3081  1  0.09375000  0.13879125  0.17370875  1
  Na  Na3082  1  0.09375000  0.13879125  0.29870875  1
  Na  Na3083  1  0.09375000  0.13879125  0.42370875  1
  Na  Na3084  1  0.09375000  0.13879125  0.54870875  1
  Na  Na3085  1  0.09375000  0.13879125  0.67370875  1
  Na  Na3086  1  0.09375000  0.13879125  0.79870875  1
  Na  Na3087  1  0.09375000  0.13879125  0.92370875  1
  Na  Na3088  1  0.09375000  0.26379125  0.04870875  1
  Na  Na3089  1  0.09375000  0.26379125  0.17370875  1
  Na  Na3090  1  0.09375000  0.26379125  0.29870875  1
  Na  Na3091  1  0.09375000  0.26379125  0.42370875  1
  Na  Na3092  1  0.09375000  0.26379125  0.54870875  1
  Na  Na3093  1  0.09375000  0.26379125  0.67370875  1
  Na  Na3094  1  0.09375000  0.26379125  0.79870875  1
  Na  Na3095  1  0.09375000  0.26379125  0.92370875  1
  Na  Na3096  1  0.09375000  0.38879125  0.04870875  1
  Na  Na3097  1  0.09375000  0.38879125  0.17370875  1
  Na  Na3098  1  0.09375000  0.38879125  0.29870875  1
  Na  Na3099  1  0.09375000  0.38879125  0.42370875  1
  Na  Na3100  1  0.09375000  0.38879125  0.54870875  1
  Na  Na3101  1  0.09375000  0.38879125  0.67370875  1
  Na  Na3102  1  0.09375000  0.38879125  0.79870875  1
  Na  Na3103  1  0.09375000  0.38879125  0.92370875  1
  Na  Na3104  1  0.09375000  0.51379125  0.04870875  1
  Na  Na3105  1  0.09375000  0.51379125  0.17370875  1
  Na  Na3106  1  0.09375000  0.51379125  0.29870875  1
  Na  Na3107  1  0.09375000  0.51379125  0.42370875  1
  Na  Na3108  1  0.09375000  0.51379125  0.54870875  1
  Na  Na3109  1  0.09375000  0.51379125  0.67370875  1
  Na  Na3110  1  0.09375000  0.51379125  0.79870875  1
  Na  Na3111  1  0.09375000  0.51379125  0.92370875  1
  Na  Na3112  1  0.09375000  0.63879125  0.04870875  1
  Na  Na3113  1  0.09375000  0.63879125  0.17370875  1
  Na  Na3114  1  0.09375000  0.63879125  0.29870875  1
  Na  Na3115  1  0.09375000  0.63879125  0.42370875  1
  Na  Na3116  1  0.09375000  0.63879125  0.54870875  1
  Na  Na3117  1  0.09375000  0.63879125  0.67370875  1
  Na  Na3118  1  0.09375000  0.63879125  0.79870875  1
  Na  Na3119  1  0.09375000  0.63879125  0.92370875  1
  Na  Na3120  1  0.09375000  0.76379125  0.04870875  1
  Na  Na3121  1  0.09375000  0.76379125  0.17370875  1
  Na  Na3122  1  0.09375000  0.76379125  0.29870875  1
  Na  Na3123  1  0.09375000  0.76379125  0.42370875  1
  Na  Na3124  1  0.09375000  0.76379125  0.54870875  1
  Na  Na3125  1  0.09375000  0.76379125  0.67370875  1
  Na  Na3126  1  0.09375000  0.76379125  0.79870875  1
  Na  Na3127  1  0.09375000  0.76379125  0.92370875  1
  Na  Na3128  1  0.09375000  0.88879125  0.04870875  1
  Na  Na3129  1  0.09375000  0.88879125  0.17370875  1
  Na  Na3130  1  0.09375000  0.88879125  0.29870875  1
  Na  Na3131  1  0.09375000  0.88879125  0.42370875  1
  Na  Na3132  1  0.09375000  0.88879125  0.54870875  1
  Na  Na3133  1  0.09375000  0.88879125  0.67370875  1
  Na  Na3134  1  0.09375000  0.88879125  0.79870875  1
  Na  Na3135  1  0.09375000  0.88879125  0.92370875  1
  Na  Na3136  1  0.21875000  0.01379125  0.04870875  1
  Na  Na3137  1  0.21875000  0.01379125  0.17370875  1
  Na  Na3138  1  0.21875000  0.01379125  0.29870875  1
  Na  Na3139  1  0.21875000  0.01379125  0.42370875  1
  Na  Na3140  1  0.21875000  0.01379125  0.54870875  1
  Na  Na3141  1  0.21875000  0.01379125  0.67370875  1
  Na  Na3142  1  0.21875000  0.01379125  0.79870875  1
  Na  Na3143  1  0.21875000  0.01379125  0.92370875  1
  Na  Na3144  1  0.21875000  0.13879125  0.04870875  1
  Na  Na3145  1  0.21875000  0.13879125  0.17370875  1
  Na  Na3146  1  0.21875000  0.13879125  0.29870875  1
  Na  Na3147  1  0.21875000  0.13879125  0.42370875  1
  Na  Na3148  1  0.21875000  0.13879125  0.54870875  1
  Na  Na3149  1  0.21875000  0.13879125  0.67370875  1
  Na  Na3150  1  0.21875000  0.13879125  0.79870875  1
  Na  Na3151  1  0.21875000  0.13879125  0.92370875  1
  Na  Na3152  1  0.21875000  0.26379125  0.04870875  1
  Na  Na3153  1  0.21875000  0.26379125  0.17370875  1
  Na  Na3154  1  0.21875000  0.26379125  0.29870875  1
  Na  Na3155  1  0.21875000  0.26379125  0.42370875  1
  Na  Na3156  1  0.21875000  0.26379125  0.54870875  1
  Na  Na3157  1  0.21875000  0.26379125  0.67370875  1
  Na  Na3158  1  0.21875000  0.26379125  0.79870875  1
  Na  Na3159  1  0.21875000  0.26379125  0.92370875  1
  Na  Na3160  1  0.21875000  0.38879125  0.04870875  1
  Na  Na3161  1  0.21875000  0.38879125  0.17370875  1
  Na  Na3162  1  0.21875000  0.38879125  0.29870875  1
  Na  Na3163  1  0.21875000  0.38879125  0.42370875  1
  Na  Na3164  1  0.21875000  0.38879125  0.54870875  1
  Na  Na3165  1  0.21875000  0.38879125  0.67370875  1
  Na  Na3166  1  0.21875000  0.38879125  0.79870875  1
  Na  Na3167  1  0.21875000  0.38879125  0.92370875  1
  Na  Na3168  1  0.21875000  0.51379125  0.04870875  1
  Na  Na3169  1  0.21875000  0.51379125  0.17370875  1
  Na  Na3170  1  0.21875000  0.51379125  0.29870875  1
  Na  Na3171  1  0.21875000  0.51379125  0.42370875  1
  Na  Na3172  1  0.21875000  0.51379125  0.54870875  1
  Na  Na3173  1  0.21875000  0.51379125  0.67370875  1
  Na  Na3174  1  0.21875000  0.51379125  0.79870875  1
  Na  Na3175  1  0.21875000  0.51379125  0.92370875  1
  Na  Na3176  1  0.21875000  0.63879125  0.04870875  1
  Na  Na3177  1  0.21875000  0.63879125  0.17370875  1
  Na  Na3178  1  0.21875000  0.63879125  0.29870875  1
  Na  Na3179  1  0.21875000  0.63879125  0.42370875  1
  Na  Na3180  1  0.21875000  0.63879125  0.54870875  1
  Na  Na3181  1  0.21875000  0.63879125  0.67370875  1
  Na  Na3182  1  0.21875000  0.63879125  0.79870875  1
  Na  Na3183  1  0.21875000  0.63879125  0.92370875  1
  Na  Na3184  1  0.21875000  0.76379125  0.04870875  1
  Na  Na3185  1  0.21875000  0.76379125  0.17370875  1
  Na  Na3186  1  0.21875000  0.76379125  0.29870875  1
  Na  Na3187  1  0.21875000  0.76379125  0.42370875  1
  Na  Na3188  1  0.21875000  0.76379125  0.54870875  1
  Na  Na3189  1  0.21875000  0.76379125  0.67370875  1
  Na  Na3190  1  0.21875000  0.76379125  0.79870875  1
  Na  Na3191  1  0.21875000  0.76379125  0.92370875  1
  Na  Na3192  1  0.21875000  0.88879125  0.04870875  1
  Na  Na3193  1  0.21875000  0.88879125  0.17370875  1
  Na  Na3194  1  0.21875000  0.88879125  0.29870875  1
  Na  Na3195  1  0.21875000  0.88879125  0.42370875  1
  Na  Na3196  1  0.21875000  0.88879125  0.54870875  1
  Na  Na3197  1  0.21875000  0.88879125  0.67370875  1
  Na  Na3198  1  0.21875000  0.88879125  0.79870875  1
  Na  Na3199  1  0.21875000  0.88879125  0.92370875  1
  Na  Na3200  1  0.34375000  0.01379125  0.04870875  1
  Na  Na3201  1  0.34375000  0.01379125  0.17370875  1
  Na  Na3202  1  0.34375000  0.01379125  0.29870875  1
  Na  Na3203  1  0.34375000  0.01379125  0.42370875  1
  Na  Na3204  1  0.34375000  0.01379125  0.54870875  1
  Na  Na3205  1  0.34375000  0.01379125  0.67370875  1
  Na  Na3206  1  0.34375000  0.01379125  0.79870875  1
  Na  Na3207  1  0.34375000  0.01379125  0.92370875  1
  Na  Na3208  1  0.34375000  0.13879125  0.04870875  1
  Na  Na3209  1  0.34375000  0.13879125  0.17370875  1
  Na  Na3210  1  0.34375000  0.13879125  0.29870875  1
  Na  Na3211  1  0.34375000  0.13879125  0.42370875  1
  Na  Na3212  1  0.34375000  0.13879125  0.54870875  1
  Na  Na3213  1  0.34375000  0.13879125  0.67370875  1
  Na  Na3214  1  0.34375000  0.13879125  0.79870875  1
  Na  Na3215  1  0.34375000  0.13879125  0.92370875  1
  Na  Na3216  1  0.34375000  0.26379125  0.04870875  1
  Na  Na3217  1  0.34375000  0.26379125  0.17370875  1
  Na  Na3218  1  0.34375000  0.26379125  0.29870875  1
  Na  Na3219  1  0.34375000  0.26379125  0.42370875  1
  Na  Na3220  1  0.34375000  0.26379125  0.54870875  1
  Na  Na3221  1  0.34375000  0.26379125  0.67370875  1
  Na  Na3222  1  0.34375000  0.26379125  0.79870875  1
  Na  Na3223  1  0.34375000  0.26379125  0.92370875  1
  Na  Na3224  1  0.34375000  0.38879125  0.04870875  1
  Na  Na3225  1  0.34375000  0.38879125  0.17370875  1
  Na  Na3226  1  0.34375000  0.38879125  0.29870875  1
  Na  Na3227  1  0.34375000  0.38879125  0.42370875  1
  Na  Na3228  1  0.34375000  0.38879125  0.54870875  1
  Na  Na3229  1  0.34375000  0.38879125  0.67370875  1
  Na  Na3230  1  0.34375000  0.38879125  0.79870875  1
  Na  Na3231  1  0.34375000  0.38879125  0.92370875  1
  Na  Na3232  1  0.34375000  0.51379125  0.04870875  1
  Na  Na3233  1  0.34375000  0.51379125  0.17370875  1
  Na  Na3234  1  0.34375000  0.51379125  0.29870875  1
  Na  Na3235  1  0.34375000  0.51379125  0.42370875  1
  Na  Na3236  1  0.34375000  0.51379125  0.54870875  1
  Na  Na3237  1  0.34375000  0.51379125  0.67370875  1
  Na  Na3238  1  0.34375000  0.51379125  0.79870875  1
  Na  Na3239  1  0.34375000  0.51379125  0.92370875  1
  Na  Na3240  1  0.34375000  0.63879125  0.04870875  1
  Na  Na3241  1  0.34375000  0.63879125  0.17370875  1
  Na  Na3242  1  0.34375000  0.63879125  0.29870875  1
  Na  Na3243  1  0.34375000  0.63879125  0.42370875  1
  Na  Na3244  1  0.34375000  0.63879125  0.54870875  1
  Na  Na3245  1  0.34375000  0.63879125  0.67370875  1
  Na  Na3246  1  0.34375000  0.63879125  0.79870875  1
  Na  Na3247  1  0.34375000  0.63879125  0.92370875  1
  Na  Na3248  1  0.34375000  0.76379125  0.04870875  1
  Na  Na3249  1  0.34375000  0.76379125  0.17370875  1
  Na  Na3250  1  0.34375000  0.76379125  0.29870875  1
  Na  Na3251  1  0.34375000  0.76379125  0.42370875  1
  Na  Na3252  1  0.34375000  0.76379125  0.54870875  1
  Na  Na3253  1  0.34375000  0.76379125  0.67370875  1
  Na  Na3254  1  0.34375000  0.76379125  0.79870875  1
  Na  Na3255  1  0.34375000  0.76379125  0.92370875  1
  Na  Na3256  1  0.34375000  0.88879125  0.04870875  1
  Na  Na3257  1  0.34375000  0.88879125  0.17370875  1
  Na  Na3258  1  0.34375000  0.88879125  0.29870875  1
  Na  Na3259  1  0.34375000  0.88879125  0.42370875  1
  Na  Na3260  1  0.34375000  0.88879125  0.54870875  1
  Na  Na3261  1  0.34375000  0.88879125  0.67370875  1
  Na  Na3262  1  0.34375000  0.88879125  0.79870875  1
  Na  Na3263  1  0.34375000  0.88879125  0.92370875  1
  Na  Na3264  1  0.46875000  0.01379125  0.04870875  1
  Na  Na3265  1  0.46875000  0.01379125  0.17370875  1
  Na  Na3266  1  0.46875000  0.01379125  0.29870875  1
  Na  Na3267  1  0.46875000  0.01379125  0.42370875  1
  Na  Na3268  1  0.46875000  0.01379125  0.54870875  1
  Na  Na3269  1  0.46875000  0.01379125  0.67370875  1
  Na  Na3270  1  0.46875000  0.01379125  0.79870875  1
  Na  Na3271  1  0.46875000  0.01379125  0.92370875  1
  Na  Na3272  1  0.46875000  0.13879125  0.04870875  1
  Na  Na3273  1  0.46875000  0.13879125  0.17370875  1
  Na  Na3274  1  0.46875000  0.13879125  0.29870875  1
  Na  Na3275  1  0.46875000  0.13879125  0.42370875  1
  Na  Na3276  1  0.46875000  0.13879125  0.54870875  1
  Na  Na3277  1  0.46875000  0.13879125  0.67370875  1
  Na  Na3278  1  0.46875000  0.13879125  0.79870875  1
  Na  Na3279  1  0.46875000  0.13879125  0.92370875  1
  Na  Na3280  1  0.46875000  0.26379125  0.04870875  1
  Na  Na3281  1  0.46875000  0.26379125  0.17370875  1
  Na  Na3282  1  0.46875000  0.26379125  0.29870875  1
  Na  Na3283  1  0.46875000  0.26379125  0.42370875  1
  Na  Na3284  1  0.46875000  0.26379125  0.54870875  1
  Na  Na3285  1  0.46875000  0.26379125  0.67370875  1
  Na  Na3286  1  0.46875000  0.26379125  0.79870875  1
  Na  Na3287  1  0.46875000  0.26379125  0.92370875  1
  Na  Na3288  1  0.46875000  0.38879125  0.04870875  1
  Na  Na3289  1  0.46875000  0.38879125  0.17370875  1
  Na  Na3290  1  0.46875000  0.38879125  0.29870875  1
  Na  Na3291  1  0.46875000  0.38879125  0.42370875  1
  Na  Na3292  1  0.46875000  0.38879125  0.54870875  1
  Na  Na3293  1  0.46875000  0.38879125  0.67370875  1
  Na  Na3294  1  0.46875000  0.38879125  0.79870875  1
  Na  Na3295  1  0.46875000  0.38879125  0.92370875  1
  Na  Na3296  1  0.46875000  0.51379125  0.04870875  1
  Na  Na3297  1  0.46875000  0.51379125  0.17370875  1
  Na  Na3298  1  0.46875000  0.51379125  0.29870875  1
  Na  Na3299  1  0.46875000  0.51379125  0.42370875  1
  Na  Na3300  1  0.46875000  0.51379125  0.54870875  1
  Na  Na3301  1  0.46875000  0.51379125  0.67370875  1
  Na  Na3302  1  0.46875000  0.51379125  0.79870875  1
  Na  Na3303  1  0.46875000  0.51379125  0.92370875  1
  Na  Na3304  1  0.46875000  0.63879125  0.04870875  1
  Na  Na3305  1  0.46875000  0.63879125  0.17370875  1
  Na  Na3306  1  0.46875000  0.63879125  0.29870875  1
  Na  Na3307  1  0.46875000  0.63879125  0.42370875  1
  Na  Na3308  1  0.46875000  0.63879125  0.54870875  1
  Na  Na3309  1  0.46875000  0.63879125  0.67370875  1
  Na  Na3310  1  0.46875000  0.63879125  0.79870875  1
  Na  Na3311  1  0.46875000  0.63879125  0.92370875  1
  Na  Na3312  1  0.46875000  0.76379125  0.04870875  1
  Na  Na3313  1  0.46875000  0.76379125  0.17370875  1
  Na  Na3314  1  0.46875000  0.76379125  0.29870875  1
  Na  Na3315  1  0.46875000  0.76379125  0.42370875  1
  Na  Na3316  1  0.46875000  0.76379125  0.54870875  1
  Na  Na3317  1  0.46875000  0.76379125  0.67370875  1
  Na  Na3318  1  0.46875000  0.76379125  0.79870875  1
  Na  Na3319  1  0.46875000  0.76379125  0.92370875  1
  Na  Na3320  1  0.46875000  0.88879125  0.04870875  1
  Na  Na3321  1  0.46875000  0.88879125  0.17370875  1
  Na  Na3322  1  0.46875000  0.88879125  0.29870875  1
  Na  Na3323  1  0.46875000  0.88879125  0.42370875  1
  Na  Na3324  1  0.46875000  0.88879125  0.54870875  1
  Na  Na3325  1  0.46875000  0.88879125  0.67370875  1
  Na  Na3326  1  0.46875000  0.88879125  0.79870875  1
  Na  Na3327  1  0.46875000  0.88879125  0.92370875  1
  Na  Na3328  1  0.59375000  0.01379125  0.04870875  1
  Na  Na3329  1  0.59375000  0.01379125  0.17370875  1
  Na  Na3330  1  0.59375000  0.01379125  0.29870875  1
  Na  Na3331  1  0.59375000  0.01379125  0.42370875  1
  Na  Na3332  1  0.59375000  0.01379125  0.54870875  1
  Na  Na3333  1  0.59375000  0.01379125  0.67370875  1
  Na  Na3334  1  0.59375000  0.01379125  0.79870875  1
  Na  Na3335  1  0.59375000  0.01379125  0.92370875  1
  Na  Na3336  1  0.59375000  0.13879125  0.04870875  1
  Na  Na3337  1  0.59375000  0.13879125  0.17370875  1
  Na  Na3338  1  0.59375000  0.13879125  0.29870875  1
  Na  Na3339  1  0.59375000  0.13879125  0.42370875  1
  Na  Na3340  1  0.59375000  0.13879125  0.54870875  1
  Na  Na3341  1  0.59375000  0.13879125  0.67370875  1
  Na  Na3342  1  0.59375000  0.13879125  0.79870875  1
  Na  Na3343  1  0.59375000  0.13879125  0.92370875  1
  Na  Na3344  1  0.59375000  0.26379125  0.04870875  1
  Na  Na3345  1  0.59375000  0.26379125  0.17370875  1
  Na  Na3346  1  0.59375000  0.26379125  0.29870875  1
  Na  Na3347  1  0.59375000  0.26379125  0.42370875  1
  Na  Na3348  1  0.59375000  0.26379125  0.54870875  1
  Na  Na3349  1  0.59375000  0.26379125  0.67370875  1
  Na  Na3350  1  0.59375000  0.26379125  0.79870875  1
  Na  Na3351  1  0.59375000  0.26379125  0.92370875  1
  Na  Na3352  1  0.59375000  0.38879125  0.04870875  1
  Na  Na3353  1  0.59375000  0.38879125  0.17370875  1
  Na  Na3354  1  0.59375000  0.38879125  0.29870875  1
  Na  Na3355  1  0.59375000  0.38879125  0.42370875  1
  Na  Na3356  1  0.59375000  0.38879125  0.54870875  1
  Na  Na3357  1  0.59375000  0.38879125  0.67370875  1
  Na  Na3358  1  0.59375000  0.38879125  0.79870875  1
  Na  Na3359  1  0.59375000  0.38879125  0.92370875  1
  Na  Na3360  1  0.59375000  0.51379125  0.04870875  1
  Na  Na3361  1  0.59375000  0.51379125  0.17370875  1
  Na  Na3362  1  0.59375000  0.51379125  0.29870875  1
  Na  Na3363  1  0.59375000  0.51379125  0.42370875  1
  Na  Na3364  1  0.59375000  0.51379125  0.54870875  1
  Na  Na3365  1  0.59375000  0.51379125  0.67370875  1
  Na  Na3366  1  0.59375000  0.51379125  0.79870875  1
  Na  Na3367  1  0.59375000  0.51379125  0.92370875  1
  Na  Na3368  1  0.59375000  0.63879125  0.04870875  1
  Na  Na3369  1  0.59375000  0.63879125  0.17370875  1
  Na  Na3370  1  0.59375000  0.63879125  0.29870875  1
  Na  Na3371  1  0.59375000  0.63879125  0.42370875  1
  Na  Na3372  1  0.59375000  0.63879125  0.54870875  1
  Na  Na3373  1  0.59375000  0.63879125  0.67370875  1
  Na  Na3374  1  0.59375000  0.63879125  0.79870875  1
  Na  Na3375  1  0.59375000  0.63879125  0.92370875  1
  Na  Na3376  1  0.59375000  0.76379125  0.04870875  1
  Na  Na3377  1  0.59375000  0.76379125  0.17370875  1
  Na  Na3378  1  0.59375000  0.76379125  0.29870875  1
  Na  Na3379  1  0.59375000  0.76379125  0.42370875  1
  Na  Na3380  1  0.59375000  0.76379125  0.54870875  1
  Na  Na3381  1  0.59375000  0.76379125  0.67370875  1
  Na  Na3382  1  0.59375000  0.76379125  0.79870875  1
  Na  Na3383  1  0.59375000  0.76379125  0.92370875  1
  Na  Na3384  1  0.59375000  0.88879125  0.04870875  1
  Na  Na3385  1  0.59375000  0.88879125  0.17370875  1
  Na  Na3386  1  0.59375000  0.88879125  0.29870875  1
  Na  Na3387  1  0.59375000  0.88879125  0.42370875  1
  Na  Na3388  1  0.59375000  0.88879125  0.54870875  1
  Na  Na3389  1  0.59375000  0.88879125  0.67370875  1
  Na  Na3390  1  0.59375000  0.88879125  0.79870875  1
  Na  Na3391  1  0.59375000  0.88879125  0.92370875  1
  Na  Na3392  1  0.71875000  0.01379125  0.04870875  1
  Na  Na3393  1  0.71875000  0.01379125  0.17370875  1
  Na  Na3394  1  0.71875000  0.01379125  0.29870875  1
  Na  Na3395  1  0.71875000  0.01379125  0.42370875  1
  Na  Na3396  1  0.71875000  0.01379125  0.54870875  1
  Na  Na3397  1  0.71875000  0.01379125  0.67370875  1
  Na  Na3398  1  0.71875000  0.01379125  0.79870875  1
  Na  Na3399  1  0.71875000  0.01379125  0.92370875  1
  Na  Na3400  1  0.71875000  0.13879125  0.04870875  1
  Na  Na3401  1  0.71875000  0.13879125  0.17370875  1
  Na  Na3402  1  0.71875000  0.13879125  0.29870875  1
  Na  Na3403  1  0.71875000  0.13879125  0.42370875  1
  Na  Na3404  1  0.71875000  0.13879125  0.54870875  1
  Na  Na3405  1  0.71875000  0.13879125  0.67370875  1
  Na  Na3406  1  0.71875000  0.13879125  0.79870875  1
  Na  Na3407  1  0.71875000  0.13879125  0.92370875  1
  Na  Na3408  1  0.71875000  0.26379125  0.04870875  1
  Na  Na3409  1  0.71875000  0.26379125  0.17370875  1
  Na  Na3410  1  0.71875000  0.26379125  0.29870875  1
  Na  Na3411  1  0.71875000  0.26379125  0.42370875  1
  Na  Na3412  1  0.71875000  0.26379125  0.54870875  1
  Na  Na3413  1  0.71875000  0.26379125  0.67370875  1
  Na  Na3414  1  0.71875000  0.26379125  0.79870875  1
  Na  Na3415  1  0.71875000  0.26379125  0.92370875  1
  Na  Na3416  1  0.71875000  0.38879125  0.04870875  1
  Na  Na3417  1  0.71875000  0.38879125  0.17370875  1
  Na  Na3418  1  0.71875000  0.38879125  0.29870875  1
  Na  Na3419  1  0.71875000  0.38879125  0.42370875  1
  Na  Na3420  1  0.71875000  0.38879125  0.54870875  1
  Na  Na3421  1  0.71875000  0.38879125  0.67370875  1
  Na  Na3422  1  0.71875000  0.38879125  0.79870875  1
  Na  Na3423  1  0.71875000  0.38879125  0.92370875  1
  Na  Na3424  1  0.71875000  0.51379125  0.04870875  1
  Na  Na3425  1  0.71875000  0.51379125  0.17370875  1
  Na  Na3426  1  0.71875000  0.51379125  0.29870875  1
  Na  Na3427  1  0.71875000  0.51379125  0.42370875  1
  Na  Na3428  1  0.71875000  0.51379125  0.54870875  1
  Na  Na3429  1  0.71875000  0.51379125  0.67370875  1
  Na  Na3430  1  0.71875000  0.51379125  0.79870875  1
  Na  Na3431  1  0.71875000  0.51379125  0.92370875  1
  Na  Na3432  1  0.71875000  0.63879125  0.04870875  1
  Na  Na3433  1  0.71875000  0.63879125  0.17370875  1
  Na  Na3434  1  0.71875000  0.63879125  0.29870875  1
  Na  Na3435  1  0.71875000  0.63879125  0.42370875  1
  Na  Na3436  1  0.71875000  0.63879125  0.54870875  1
  Na  Na3437  1  0.71875000  0.63879125  0.67370875  1
  Na  Na3438  1  0.71875000  0.63879125  0.79870875  1
  Na  Na3439  1  0.71875000  0.63879125  0.92370875  1
  Na  Na3440  1  0.71875000  0.76379125  0.04870875  1
  Na  Na3441  1  0.71875000  0.76379125  0.17370875  1
  Na  Na3442  1  0.71875000  0.76379125  0.29870875  1
  Na  Na3443  1  0.71875000  0.76379125  0.42370875  1
  Na  Na3444  1  0.71875000  0.76379125  0.54870875  1
  Na  Na3445  1  0.71875000  0.76379125  0.67370875  1
  Na  Na3446  1  0.71875000  0.76379125  0.79870875  1
  Na  Na3447  1  0.71875000  0.76379125  0.92370875  1
  Na  Na3448  1  0.71875000  0.88879125  0.04870875  1
  Na  Na3449  1  0.71875000  0.88879125  0.17370875  1
  Na  Na3450  1  0.71875000  0.88879125  0.29870875  1
  Na  Na3451  1  0.71875000  0.88879125  0.42370875  1
  Na  Na3452  1  0.71875000  0.88879125  0.54870875  1
  Na  Na3453  1  0.71875000  0.88879125  0.67370875  1
  Na  Na3454  1  0.71875000  0.88879125  0.79870875  1
  Na  Na3455  1  0.71875000  0.88879125  0.92370875  1
  Na  Na3456  1  0.84375000  0.01379125  0.04870875  1
  Na  Na3457  1  0.84375000  0.01379125  0.17370875  1
  Na  Na3458  1  0.84375000  0.01379125  0.29870875  1
  Na  Na3459  1  0.84375000  0.01379125  0.42370875  1
  Na  Na3460  1  0.84375000  0.01379125  0.54870875  1
  Na  Na3461  1  0.84375000  0.01379125  0.67370875  1
  Na  Na3462  1  0.84375000  0.01379125  0.79870875  1
  Na  Na3463  1  0.84375000  0.01379125  0.92370875  1
  Na  Na3464  1  0.84375000  0.13879125  0.04870875  1
  Na  Na3465  1  0.84375000  0.13879125  0.17370875  1
  Na  Na3466  1  0.84375000  0.13879125  0.29870875  1
  Na  Na3467  1  0.84375000  0.13879125  0.42370875  1
  Na  Na3468  1  0.84375000  0.13879125  0.54870875  1
  Na  Na3469  1  0.84375000  0.13879125  0.67370875  1
  Na  Na3470  1  0.84375000  0.13879125  0.79870875  1
  Na  Na3471  1  0.84375000  0.13879125  0.92370875  1
  Na  Na3472  1  0.84375000  0.26379125  0.04870875  1
  Na  Na3473  1  0.84375000  0.26379125  0.17370875  1
  Na  Na3474  1  0.84375000  0.26379125  0.29870875  1
  Na  Na3475  1  0.84375000  0.26379125  0.42370875  1
  Na  Na3476  1  0.84375000  0.26379125  0.54870875  1
  Na  Na3477  1  0.84375000  0.26379125  0.67370875  1
  Na  Na3478  1  0.84375000  0.26379125  0.79870875  1
  Na  Na3479  1  0.84375000  0.26379125  0.92370875  1
  Na  Na3480  1  0.84375000  0.38879125  0.04870875  1
  Na  Na3481  1  0.84375000  0.38879125  0.17370875  1
  Na  Na3482  1  0.84375000  0.38879125  0.29870875  1
  Na  Na3483  1  0.84375000  0.38879125  0.42370875  1
  Na  Na3484  1  0.84375000  0.38879125  0.54870875  1
  Na  Na3485  1  0.84375000  0.38879125  0.67370875  1
  Na  Na3486  1  0.84375000  0.38879125  0.79870875  1
  Na  Na3487  1  0.84375000  0.38879125  0.92370875  1
  Na  Na3488  1  0.84375000  0.51379125  0.04870875  1
  Na  Na3489  1  0.84375000  0.51379125  0.17370875  1
  Na  Na3490  1  0.84375000  0.51379125  0.29870875  1
  Na  Na3491  1  0.84375000  0.51379125  0.42370875  1
  Na  Na3492  1  0.84375000  0.51379125  0.54870875  1
  Na  Na3493  1  0.84375000  0.51379125  0.67370875  1
  Na  Na3494  1  0.84375000  0.51379125  0.79870875  1
  Na  Na3495  1  0.84375000  0.51379125  0.92370875  1
  Na  Na3496  1  0.84375000  0.63879125  0.04870875  1
  Na  Na3497  1  0.84375000  0.63879125  0.17370875  1
  Na  Na3498  1  0.84375000  0.63879125  0.29870875  1
  Na  Na3499  1  0.84375000  0.63879125  0.42370875  1
  Na  Na3500  1  0.84375000  0.63879125  0.54870875  1
  Na  Na3501  1  0.84375000  0.63879125  0.67370875  1
  Na  Na3502  1  0.84375000  0.63879125  0.79870875  1
  Na  Na3503  1  0.84375000  0.63879125  0.92370875  1
  Na  Na3504  1  0.84375000  0.76379125  0.04870875  1
  Na  Na3505  1  0.84375000  0.76379125  0.17370875  1
  Na  Na3506  1  0.84375000  0.76379125  0.29870875  1
  Na  Na3507  1  0.84375000  0.76379125  0.42370875  1
  Na  Na3508  1  0.84375000  0.76379125  0.54870875  1
  Na  Na3509  1  0.84375000  0.76379125  0.67370875  1
  Na  Na3510  1  0.84375000  0.76379125  0.79870875  1
  Na  Na3511  1  0.84375000  0.76379125  0.92370875  1
  Na  Na3512  1  0.84375000  0.88879125  0.04870875  1
  Na  Na3513  1  0.84375000  0.88879125  0.17370875  1
  Na  Na3514  1  0.84375000  0.88879125  0.29870875  1
  Na  Na3515  1  0.84375000  0.88879125  0.42370875  1
  Na  Na3516  1  0.84375000  0.88879125  0.54870875  1
  Na  Na3517  1  0.84375000  0.88879125  0.67370875  1
  Na  Na3518  1  0.84375000  0.88879125  0.79870875  1
  Na  Na3519  1  0.84375000  0.88879125  0.92370875  1
  Na  Na3520  1  0.96875000  0.01379125  0.04870875  1
  Na  Na3521  1  0.96875000  0.01379125  0.17370875  1
  Na  Na3522  1  0.96875000  0.01379125  0.29870875  1
  Na  Na3523  1  0.96875000  0.01379125  0.42370875  1
  Na  Na3524  1  0.96875000  0.01379125  0.54870875  1
  Na  Na3525  1  0.96875000  0.01379125  0.67370875  1
  Na  Na3526  1  0.96875000  0.01379125  0.79870875  1
  Na  Na3527  1  0.96875000  0.01379125  0.92370875  1
  Na  Na3528  1  0.96875000  0.13879125  0.04870875  1
  Na  Na3529  1  0.96875000  0.13879125  0.17370875  1
  Na  Na3530  1  0.96875000  0.13879125  0.29870875  1
  Na  Na3531  1  0.96875000  0.13879125  0.42370875  1
  Na  Na3532  1  0.96875000  0.13879125  0.54870875  1
  Na  Na3533  1  0.96875000  0.13879125  0.67370875  1
  Na  Na3534  1  0.96875000  0.13879125  0.79870875  1
  Na  Na3535  1  0.96875000  0.13879125  0.92370875  1
  Na  Na3536  1  0.96875000  0.26379125  0.04870875  1
  Na  Na3537  1  0.96875000  0.26379125  0.17370875  1
  Na  Na3538  1  0.96875000  0.26379125  0.29870875  1
  Na  Na3539  1  0.96875000  0.26379125  0.42370875  1
  Na  Na3540  1  0.96875000  0.26379125  0.54870875  1
  Na  Na3541  1  0.96875000  0.26379125  0.67370875  1
  Na  Na3542  1  0.96875000  0.26379125  0.79870875  1
  Na  Na3543  1  0.96875000  0.26379125  0.92370875  1
  Na  Na3544  1  0.96875000  0.38879125  0.04870875  1
  Na  Na3545  1  0.96875000  0.38879125  0.17370875  1
  Na  Na3546  1  0.96875000  0.38879125  0.29870875  1
  Na  Na3547  1  0.96875000  0.38879125  0.42370875  1
  Na  Na3548  1  0.96875000  0.38879125  0.54870875  1
  Na  Na3549  1  0.96875000  0.38879125  0.67370875  1
  Na  Na3550  1  0.96875000  0.38879125  0.79870875  1
  Na  Na3551  1  0.96875000  0.38879125  0.92370875  1
  Na  Na3552  1  0.96875000  0.51379125  0.04870875  1
  Na  Na3553  1  0.96875000  0.51379125  0.17370875  1
  Na  Na3554  1  0.96875000  0.51379125  0.29870875  1
  Na  Na3555  1  0.96875000  0.51379125  0.42370875  1
  Na  Na3556  1  0.96875000  0.51379125  0.54870875  1
  Na  Na3557  1  0.96875000  0.51379125  0.67370875  1
  Na  Na3558  1  0.96875000  0.51379125  0.79870875  1
  Na  Na3559  1  0.96875000  0.51379125  0.92370875  1
  Na  Na3560  1  0.96875000  0.63879125  0.04870875  1
  Na  Na3561  1  0.96875000  0.63879125  0.17370875  1
  Na  Na3562  1  0.96875000  0.63879125  0.29870875  1
  Na  Na3563  1  0.96875000  0.63879125  0.42370875  1
  Na  Na3564  1  0.96875000  0.63879125  0.54870875  1
  Na  Na3565  1  0.96875000  0.63879125  0.67370875  1
  Na  Na3566  1  0.96875000  0.63879125  0.79870875  1
  Na  Na3567  1  0.96875000  0.63879125  0.92370875  1
  Na  Na3568  1  0.96875000  0.76379125  0.04870875  1
  Na  Na3569  1  0.96875000  0.76379125  0.17370875  1
  Na  Na3570  1  0.96875000  0.76379125  0.29870875  1
  Na  Na3571  1  0.96875000  0.76379125  0.42370875  1
  Na  Na3572  1  0.96875000  0.76379125  0.54870875  1
  Na  Na3573  1  0.96875000  0.76379125  0.67370875  1
  Na  Na3574  1  0.96875000  0.76379125  0.79870875  1
  Na  Na3575  1  0.96875000  0.76379125  0.92370875  1
  Na  Na3576  1  0.96875000  0.88879125  0.04870875  1
  Na  Na3577  1  0.96875000  0.88879125  0.17370875  1
  Na  Na3578  1  0.96875000  0.88879125  0.29870875  1
  Na  Na3579  1  0.96875000  0.88879125  0.42370875  1
  Na  Na3580  1  0.96875000  0.88879125  0.54870875  1
  Na  Na3581  1  0.96875000  0.88879125  0.67370875  1
  Na  Na3582  1  0.96875000  0.88879125  0.79870875  1
  Na  Na3583  1  0.96875000  0.88879125  0.92370875  1
  Na  Na3584  1  0.01379125  0.04870875  0.09375000  1
  Na  Na3585  1  0.01379125  0.04870875  0.21875000  1
  Na  Na3586  1  0.01379125  0.04870875  0.34375000  1
  Na  Na3587  1  0.01379125  0.04870875  0.46875000  1
  Na  Na3588  1  0.01379125  0.04870875  0.59375000  1
  Na  Na3589  1  0.01379125  0.04870875  0.71875000  1
  Na  Na3590  1  0.01379125  0.04870875  0.84375000  1
  Na  Na3591  1  0.01379125  0.04870875  0.96875000  1
  Na  Na3592  1  0.01379125  0.17370875  0.09375000  1
  Na  Na3593  1  0.01379125  0.17370875  0.21875000  1
  Na  Na3594  1  0.01379125  0.17370875  0.34375000  1
  Na  Na3595  1  0.01379125  0.17370875  0.46875000  1
  Na  Na3596  1  0.01379125  0.17370875  0.59375000  1
  Na  Na3597  1  0.01379125  0.17370875  0.71875000  1
  Na  Na3598  1  0.01379125  0.17370875  0.84375000  1
  Na  Na3599  1  0.01379125  0.17370875  0.96875000  1
  Na  Na3600  1  0.01379125  0.29870875  0.09375000  1
  Na  Na3601  1  0.01379125  0.29870875  0.21875000  1
  Na  Na3602  1  0.01379125  0.29870875  0.34375000  1
  Na  Na3603  1  0.01379125  0.29870875  0.46875000  1
  Na  Na3604  1  0.01379125  0.29870875  0.59375000  1
  Na  Na3605  1  0.01379125  0.29870875  0.71875000  1
  Na  Na3606  1  0.01379125  0.29870875  0.84375000  1
  Na  Na3607  1  0.01379125  0.29870875  0.96875000  1
  Na  Na3608  1  0.01379125  0.42370875  0.09375000  1
  Na  Na3609  1  0.01379125  0.42370875  0.21875000  1
  Na  Na3610  1  0.01379125  0.42370875  0.34375000  1
  Na  Na3611  1  0.01379125  0.42370875  0.46875000  1
  Na  Na3612  1  0.01379125  0.42370875  0.59375000  1
  Na  Na3613  1  0.01379125  0.42370875  0.71875000  1
  Na  Na3614  1  0.01379125  0.42370875  0.84375000  1
  Na  Na3615  1  0.01379125  0.42370875  0.96875000  1
  Na  Na3616  1  0.01379125  0.54870875  0.09375000  1
  Na  Na3617  1  0.01379125  0.54870875  0.21875000  1
  Na  Na3618  1  0.01379125  0.54870875  0.34375000  1
  Na  Na3619  1  0.01379125  0.54870875  0.46875000  1
  Na  Na3620  1  0.01379125  0.54870875  0.59375000  1
  Na  Na3621  1  0.01379125  0.54870875  0.71875000  1
  Na  Na3622  1  0.01379125  0.54870875  0.84375000  1
  Na  Na3623  1  0.01379125  0.54870875  0.96875000  1
  Na  Na3624  1  0.01379125  0.67370875  0.09375000  1
  Na  Na3625  1  0.01379125  0.67370875  0.21875000  1
  Na  Na3626  1  0.01379125  0.67370875  0.34375000  1
  Na  Na3627  1  0.01379125  0.67370875  0.46875000  1
  Na  Na3628  1  0.01379125  0.67370875  0.59375000  1
  Na  Na3629  1  0.01379125  0.67370875  0.71875000  1
  Na  Na3630  1  0.01379125  0.67370875  0.84375000  1
  Na  Na3631  1  0.01379125  0.67370875  0.96875000  1
  Na  Na3632  1  0.01379125  0.79870875  0.09375000  1
  Na  Na3633  1  0.01379125  0.79870875  0.21875000  1
  Na  Na3634  1  0.01379125  0.79870875  0.34375000  1
  Na  Na3635  1  0.01379125  0.79870875  0.46875000  1
  Na  Na3636  1  0.01379125  0.79870875  0.59375000  1
  Na  Na3637  1  0.01379125  0.79870875  0.71875000  1
  Na  Na3638  1  0.01379125  0.79870875  0.84375000  1
  Na  Na3639  1  0.01379125  0.79870875  0.96875000  1
  Na  Na3640  1  0.01379125  0.92370875  0.09375000  1
  Na  Na3641  1  0.01379125  0.92370875  0.21875000  1
  Na  Na3642  1  0.01379125  0.92370875  0.34375000  1
  Na  Na3643  1  0.01379125  0.92370875  0.46875000  1
  Na  Na3644  1  0.01379125  0.92370875  0.59375000  1
  Na  Na3645  1  0.01379125  0.92370875  0.71875000  1
  Na  Na3646  1  0.01379125  0.92370875  0.84375000  1
  Na  Na3647  1  0.01379125  0.92370875  0.96875000  1
  Na  Na3648  1  0.13879125  0.04870875  0.09375000  1
  Na  Na3649  1  0.13879125  0.04870875  0.21875000  1
  Na  Na3650  1  0.13879125  0.04870875  0.34375000  1
  Na  Na3651  1  0.13879125  0.04870875  0.46875000  1
  Na  Na3652  1  0.13879125  0.04870875  0.59375000  1
  Na  Na3653  1  0.13879125  0.04870875  0.71875000  1
  Na  Na3654  1  0.13879125  0.04870875  0.84375000  1
  Na  Na3655  1  0.13879125  0.04870875  0.96875000  1
  Na  Na3656  1  0.13879125  0.17370875  0.09375000  1
  Na  Na3657  1  0.13879125  0.17370875  0.21875000  1
  Na  Na3658  1  0.13879125  0.17370875  0.34375000  1
  Na  Na3659  1  0.13879125  0.17370875  0.46875000  1
  Na  Na3660  1  0.13879125  0.17370875  0.59375000  1
  Na  Na3661  1  0.13879125  0.17370875  0.71875000  1
  Na  Na3662  1  0.13879125  0.17370875  0.84375000  1
  Na  Na3663  1  0.13879125  0.17370875  0.96875000  1
  Na  Na3664  1  0.13879125  0.29870875  0.09375000  1
  Na  Na3665  1  0.13879125  0.29870875  0.21875000  1
  Na  Na3666  1  0.13879125  0.29870875  0.34375000  1
  Na  Na3667  1  0.13879125  0.29870875  0.46875000  1
  Na  Na3668  1  0.13879125  0.29870875  0.59375000  1
  Na  Na3669  1  0.13879125  0.29870875  0.71875000  1
  Na  Na3670  1  0.13879125  0.29870875  0.84375000  1
  Na  Na3671  1  0.13879125  0.29870875  0.96875000  1
  Na  Na3672  1  0.13879125  0.42370875  0.09375000  1
  Na  Na3673  1  0.13879125  0.42370875  0.21875000  1
  Na  Na3674  1  0.13879125  0.42370875  0.34375000  1
  Na  Na3675  1  0.13879125  0.42370875  0.46875000  1
  Na  Na3676  1  0.13879125  0.42370875  0.59375000  1
  Na  Na3677  1  0.13879125  0.42370875  0.71875000  1
  Na  Na3678  1  0.13879125  0.42370875  0.84375000  1
  Na  Na3679  1  0.13879125  0.42370875  0.96875000  1
  Na  Na3680  1  0.13879125  0.54870875  0.09375000  1
  Na  Na3681  1  0.13879125  0.54870875  0.21875000  1
  Na  Na3682  1  0.13879125  0.54870875  0.34375000  1
  Na  Na3683  1  0.13879125  0.54870875  0.46875000  1
  Na  Na3684  1  0.13879125  0.54870875  0.59375000  1
  Na  Na3685  1  0.13879125  0.54870875  0.71875000  1
  Na  Na3686  1  0.13879125  0.54870875  0.84375000  1
  Na  Na3687  1  0.13879125  0.54870875  0.96875000  1
  Na  Na3688  1  0.13879125  0.67370875  0.09375000  1
  Na  Na3689  1  0.13879125  0.67370875  0.21875000  1
  Na  Na3690  1  0.13879125  0.67370875  0.34375000  1
  Na  Na3691  1  0.13879125  0.67370875  0.46875000  1
  Na  Na3692  1  0.13879125  0.67370875  0.59375000  1
  Na  Na3693  1  0.13879125  0.67370875  0.71875000  1
  Na  Na3694  1  0.13879125  0.67370875  0.84375000  1
  Na  Na3695  1  0.13879125  0.67370875  0.96875000  1
  Na  Na3696  1  0.13879125  0.79870875  0.09375000  1
  Na  Na3697  1  0.13879125  0.79870875  0.21875000  1
  Na  Na3698  1  0.13879125  0.79870875  0.34375000  1
  Na  Na3699  1  0.13879125  0.79870875  0.46875000  1
  Na  Na3700  1  0.13879125  0.79870875  0.59375000  1
  Na  Na3701  1  0.13879125  0.79870875  0.71875000  1
  Na  Na3702  1  0.13879125  0.79870875  0.84375000  1
  Na  Na3703  1  0.13879125  0.79870875  0.96875000  1
  Na  Na3704  1  0.13879125  0.92370875  0.09375000  1
  Na  Na3705  1  0.13879125  0.92370875  0.21875000  1
  Na  Na3706  1  0.13879125  0.92370875  0.34375000  1
  Na  Na3707  1  0.13879125  0.92370875  0.46875000  1
  Na  Na3708  1  0.13879125  0.92370875  0.59375000  1
  Na  Na3709  1  0.13879125  0.92370875  0.71875000  1
  Na  Na3710  1  0.13879125  0.92370875  0.84375000  1
  Na  Na3711  1  0.13879125  0.92370875  0.96875000  1
  Na  Na3712  1  0.26379125  0.04870875  0.09375000  1
  Na  Na3713  1  0.26379125  0.04870875  0.21875000  1
  Na  Na3714  1  0.26379125  0.04870875  0.34375000  1
  Na  Na3715  1  0.26379125  0.04870875  0.46875000  1
  Na  Na3716  1  0.26379125  0.04870875  0.59375000  1
  Na  Na3717  1  0.26379125  0.04870875  0.71875000  1
  Na  Na3718  1  0.26379125  0.04870875  0.84375000  1
  Na  Na3719  1  0.26379125  0.04870875  0.96875000  1
  Na  Na3720  1  0.26379125  0.17370875  0.09375000  1
  Na  Na3721  1  0.26379125  0.17370875  0.21875000  1
  Na  Na3722  1  0.26379125  0.17370875  0.34375000  1
  Na  Na3723  1  0.26379125  0.17370875  0.46875000  1
  Na  Na3724  1  0.26379125  0.17370875  0.59375000  1
  Na  Na3725  1  0.26379125  0.17370875  0.71875000  1
  Na  Na3726  1  0.26379125  0.17370875  0.84375000  1
  Na  Na3727  1  0.26379125  0.17370875  0.96875000  1
  Na  Na3728  1  0.26379125  0.29870875  0.09375000  1
  Na  Na3729  1  0.26379125  0.29870875  0.21875000  1
  Na  Na3730  1  0.26379125  0.29870875  0.34375000  1
  Na  Na3731  1  0.26379125  0.29870875  0.46875000  1
  Na  Na3732  1  0.26379125  0.29870875  0.59375000  1
  Na  Na3733  1  0.26379125  0.29870875  0.71875000  1
  Na  Na3734  1  0.26379125  0.29870875  0.84375000  1
  Na  Na3735  1  0.26379125  0.29870875  0.96875000  1
  Na  Na3736  1  0.26379125  0.42370875  0.09375000  1
  Na  Na3737  1  0.26379125  0.42370875  0.21875000  1
  Na  Na3738  1  0.26379125  0.42370875  0.34375000  1
  Na  Na3739  1  0.26379125  0.42370875  0.46875000  1
  Na  Na3740  1  0.26379125  0.42370875  0.59375000  1
  Na  Na3741  1  0.26379125  0.42370875  0.71875000  1
  Na  Na3742  1  0.26379125  0.42370875  0.84375000  1
  Na  Na3743  1  0.26379125  0.42370875  0.96875000  1
  Na  Na3744  1  0.26379125  0.54870875  0.09375000  1
  Na  Na3745  1  0.26379125  0.54870875  0.21875000  1
  Na  Na3746  1  0.26379125  0.54870875  0.34375000  1
  Na  Na3747  1  0.26379125  0.54870875  0.46875000  1
  Na  Na3748  1  0.26379125  0.54870875  0.59375000  1
  Na  Na3749  1  0.26379125  0.54870875  0.71875000  1
  Na  Na3750  1  0.26379125  0.54870875  0.84375000  1
  Na  Na3751  1  0.26379125  0.54870875  0.96875000  1
  Na  Na3752  1  0.26379125  0.67370875  0.09375000  1
  Na  Na3753  1  0.26379125  0.67370875  0.21875000  1
  Na  Na3754  1  0.26379125  0.67370875  0.34375000  1
  Na  Na3755  1  0.26379125  0.67370875  0.46875000  1
  Na  Na3756  1  0.26379125  0.67370875  0.59375000  1
  Na  Na3757  1  0.26379125  0.67370875  0.71875000  1
  Na  Na3758  1  0.26379125  0.67370875  0.84375000  1
  Na  Na3759  1  0.26379125  0.67370875  0.96875000  1
  Na  Na3760  1  0.26379125  0.79870875  0.09375000  1
  Na  Na3761  1  0.26379125  0.79870875  0.21875000  1
  Na  Na3762  1  0.26379125  0.79870875  0.34375000  1
  Na  Na3763  1  0.26379125  0.79870875  0.46875000  1
  Na  Na3764  1  0.26379125  0.79870875  0.59375000  1
  Na  Na3765  1  0.26379125  0.79870875  0.71875000  1
  Na  Na3766  1  0.26379125  0.79870875  0.84375000  1
  Na  Na3767  1  0.26379125  0.79870875  0.96875000  1
  Na  Na3768  1  0.26379125  0.92370875  0.09375000  1
  Na  Na3769  1  0.26379125  0.92370875  0.21875000  1
  Na  Na3770  1  0.26379125  0.92370875  0.34375000  1
  Na  Na3771  1  0.26379125  0.92370875  0.46875000  1
  Na  Na3772  1  0.26379125  0.92370875  0.59375000  1
  Na  Na3773  1  0.26379125  0.92370875  0.71875000  1
  Na  Na3774  1  0.26379125  0.92370875  0.84375000  1
  Na  Na3775  1  0.26379125  0.92370875  0.96875000  1
  Na  Na3776  1  0.38879125  0.04870875  0.09375000  1
  Na  Na3777  1  0.38879125  0.04870875  0.21875000  1
  Na  Na3778  1  0.38879125  0.04870875  0.34375000  1
  Na  Na3779  1  0.38879125  0.04870875  0.46875000  1
  Na  Na3780  1  0.38879125  0.04870875  0.59375000  1
  Na  Na3781  1  0.38879125  0.04870875  0.71875000  1
  Na  Na3782  1  0.38879125  0.04870875  0.84375000  1
  Na  Na3783  1  0.38879125  0.04870875  0.96875000  1
  Na  Na3784  1  0.38879125  0.17370875  0.09375000  1
  Na  Na3785  1  0.38879125  0.17370875  0.21875000  1
  Na  Na3786  1  0.38879125  0.17370875  0.34375000  1
  Na  Na3787  1  0.38879125  0.17370875  0.46875000  1
  Na  Na3788  1  0.38879125  0.17370875  0.59375000  1
  Na  Na3789  1  0.38879125  0.17370875  0.71875000  1
  Na  Na3790  1  0.38879125  0.17370875  0.84375000  1
  Na  Na3791  1  0.38879125  0.17370875  0.96875000  1
  Na  Na3792  1  0.38879125  0.29870875  0.09375000  1
  Na  Na3793  1  0.38879125  0.29870875  0.21875000  1
  Na  Na3794  1  0.38879125  0.29870875  0.34375000  1
  Na  Na3795  1  0.38879125  0.29870875  0.46875000  1
  Na  Na3796  1  0.38879125  0.29870875  0.59375000  1
  Na  Na3797  1  0.38879125  0.29870875  0.71875000  1
  Na  Na3798  1  0.38879125  0.29870875  0.84375000  1
  Na  Na3799  1  0.38879125  0.29870875  0.96875000  1
  Na  Na3800  1  0.38879125  0.42370875  0.09375000  1
  Na  Na3801  1  0.38879125  0.42370875  0.21875000  1
  Na  Na3802  1  0.38879125  0.42370875  0.34375000  1
  Na  Na3803  1  0.38879125  0.42370875  0.46875000  1
  Na  Na3804  1  0.38879125  0.42370875  0.59375000  1
  Na  Na3805  1  0.38879125  0.42370875  0.71875000  1
  Na  Na3806  1  0.38879125  0.42370875  0.84375000  1
  Na  Na3807  1  0.38879125  0.42370875  0.96875000  1
  Na  Na3808  1  0.38879125  0.54870875  0.09375000  1
  Na  Na3809  1  0.38879125  0.54870875  0.21875000  1
  Na  Na3810  1  0.38879125  0.54870875  0.34375000  1
  Na  Na3811  1  0.38879125  0.54870875  0.46875000  1
  Na  Na3812  1  0.38879125  0.54870875  0.59375000  1
  Na  Na3813  1  0.38879125  0.54870875  0.71875000  1
  Na  Na3814  1  0.38879125  0.54870875  0.84375000  1
  Na  Na3815  1  0.38879125  0.54870875  0.96875000  1
  Na  Na3816  1  0.38879125  0.67370875  0.09375000  1
  Na  Na3817  1  0.38879125  0.67370875  0.21875000  1
  Na  Na3818  1  0.38879125  0.67370875  0.34375000  1
  Na  Na3819  1  0.38879125  0.67370875  0.46875000  1
  Na  Na3820  1  0.38879125  0.67370875  0.59375000  1
  Na  Na3821  1  0.38879125  0.67370875  0.71875000  1
  Na  Na3822  1  0.38879125  0.67370875  0.84375000  1
  Na  Na3823  1  0.38879125  0.67370875  0.96875000  1
  Na  Na3824  1  0.38879125  0.79870875  0.09375000  1
  Na  Na3825  1  0.38879125  0.79870875  0.21875000  1
  Na  Na3826  1  0.38879125  0.79870875  0.34375000  1
  Na  Na3827  1  0.38879125  0.79870875  0.46875000  1
  Na  Na3828  1  0.38879125  0.79870875  0.59375000  1
  Na  Na3829  1  0.38879125  0.79870875  0.71875000  1
  Na  Na3830  1  0.38879125  0.79870875  0.84375000  1
  Na  Na3831  1  0.38879125  0.79870875  0.96875000  1
  Na  Na3832  1  0.38879125  0.92370875  0.09375000  1
  Na  Na3833  1  0.38879125  0.92370875  0.21875000  1
  Na  Na3834  1  0.38879125  0.92370875  0.34375000  1
  Na  Na3835  1  0.38879125  0.92370875  0.46875000  1
  Na  Na3836  1  0.38879125  0.92370875  0.59375000  1
  Na  Na3837  1  0.38879125  0.92370875  0.71875000  1
  Na  Na3838  1  0.38879125  0.92370875  0.84375000  1
  Na  Na3839  1  0.38879125  0.92370875  0.96875000  1
  Na  Na3840  1  0.51379125  0.04870875  0.09375000  1
  Na  Na3841  1  0.51379125  0.04870875  0.21875000  1
  Na  Na3842  1  0.51379125  0.04870875  0.34375000  1
  Na  Na3843  1  0.51379125  0.04870875  0.46875000  1
  Na  Na3844  1  0.51379125  0.04870875  0.59375000  1
  Na  Na3845  1  0.51379125  0.04870875  0.71875000  1
  Na  Na3846  1  0.51379125  0.04870875  0.84375000  1
  Na  Na3847  1  0.51379125  0.04870875  0.96875000  1
  Na  Na3848  1  0.51379125  0.17370875  0.09375000  1
  Na  Na3849  1  0.51379125  0.17370875  0.21875000  1
  Na  Na3850  1  0.51379125  0.17370875  0.34375000  1
  Na  Na3851  1  0.51379125  0.17370875  0.46875000  1
  Na  Na3852  1  0.51379125  0.17370875  0.59375000  1
  Na  Na3853  1  0.51379125  0.17370875  0.71875000  1
  Na  Na3854  1  0.51379125  0.17370875  0.84375000  1
  Na  Na3855  1  0.51379125  0.17370875  0.96875000  1
  Na  Na3856  1  0.51379125  0.29870875  0.09375000  1
  Na  Na3857  1  0.51379125  0.29870875  0.21875000  1
  Na  Na3858  1  0.51379125  0.29870875  0.34375000  1
  Na  Na3859  1  0.51379125  0.29870875  0.46875000  1
  Na  Na3860  1  0.51379125  0.29870875  0.59375000  1
  Na  Na3861  1  0.51379125  0.29870875  0.71875000  1
  Na  Na3862  1  0.51379125  0.29870875  0.84375000  1
  Na  Na3863  1  0.51379125  0.29870875  0.96875000  1
  Na  Na3864  1  0.51379125  0.42370875  0.09375000  1
  Na  Na3865  1  0.51379125  0.42370875  0.21875000  1
  Na  Na3866  1  0.51379125  0.42370875  0.34375000  1
  Na  Na3867  1  0.51379125  0.42370875  0.46875000  1
  Na  Na3868  1  0.51379125  0.42370875  0.59375000  1
  Na  Na3869  1  0.51379125  0.42370875  0.71875000  1
  Na  Na3870  1  0.51379125  0.42370875  0.84375000  1
  Na  Na3871  1  0.51379125  0.42370875  0.96875000  1
  Na  Na3872  1  0.51379125  0.54870875  0.09375000  1
  Na  Na3873  1  0.51379125  0.54870875  0.21875000  1
  Na  Na3874  1  0.51379125  0.54870875  0.34375000  1
  Na  Na3875  1  0.51379125  0.54870875  0.46875000  1
  Na  Na3876  1  0.51379125  0.54870875  0.59375000  1
  Na  Na3877  1  0.51379125  0.54870875  0.71875000  1
  Na  Na3878  1  0.51379125  0.54870875  0.84375000  1
  Na  Na3879  1  0.51379125  0.54870875  0.96875000  1
  Na  Na3880  1  0.51379125  0.67370875  0.09375000  1
  Na  Na3881  1  0.51379125  0.67370875  0.21875000  1
  Na  Na3882  1  0.51379125  0.67370875  0.34375000  1
  Na  Na3883  1  0.51379125  0.67370875  0.46875000  1
  Na  Na3884  1  0.51379125  0.67370875  0.59375000  1
  Na  Na3885  1  0.51379125  0.67370875  0.71875000  1
  Na  Na3886  1  0.51379125  0.67370875  0.84375000  1
  Na  Na3887  1  0.51379125  0.67370875  0.96875000  1
  Na  Na3888  1  0.51379125  0.79870875  0.09375000  1
  Na  Na3889  1  0.51379125  0.79870875  0.21875000  1
  Na  Na3890  1  0.51379125  0.79870875  0.34375000  1
  Na  Na3891  1  0.51379125  0.79870875  0.46875000  1
  Na  Na3892  1  0.51379125  0.79870875  0.59375000  1
  Na  Na3893  1  0.51379125  0.79870875  0.71875000  1
  Na  Na3894  1  0.51379125  0.79870875  0.84375000  1
  Na  Na3895  1  0.51379125  0.79870875  0.96875000  1
  Na  Na3896  1  0.51379125  0.92370875  0.09375000  1
  Na  Na3897  1  0.51379125  0.92370875  0.21875000  1
  Na  Na3898  1  0.51379125  0.92370875  0.34375000  1
  Na  Na3899  1  0.51379125  0.92370875  0.46875000  1
  Na  Na3900  1  0.51379125  0.92370875  0.59375000  1
  Na  Na3901  1  0.51379125  0.92370875  0.71875000  1
  Na  Na3902  1  0.51379125  0.92370875  0.84375000  1
  Na  Na3903  1  0.51379125  0.92370875  0.96875000  1
  Na  Na3904  1  0.63879125  0.04870875  0.09375000  1
  Na  Na3905  1  0.63879125  0.04870875  0.21875000  1
  Na  Na3906  1  0.63879125  0.04870875  0.34375000  1
  Na  Na3907  1  0.63879125  0.04870875  0.46875000  1
  Na  Na3908  1  0.63879125  0.04870875  0.59375000  1
  Na  Na3909  1  0.63879125  0.04870875  0.71875000  1
  Na  Na3910  1  0.63879125  0.04870875  0.84375000  1
  Na  Na3911  1  0.63879125  0.04870875  0.96875000  1
  Na  Na3912  1  0.63879125  0.17370875  0.09375000  1
  Na  Na3913  1  0.63879125  0.17370875  0.21875000  1
  Na  Na3914  1  0.63879125  0.17370875  0.34375000  1
  Na  Na3915  1  0.63879125  0.17370875  0.46875000  1
  Na  Na3916  1  0.63879125  0.17370875  0.59375000  1
  Na  Na3917  1  0.63879125  0.17370875  0.71875000  1
  Na  Na3918  1  0.63879125  0.17370875  0.84375000  1
  Na  Na3919  1  0.63879125  0.17370875  0.96875000  1
  Na  Na3920  1  0.63879125  0.29870875  0.09375000  1
  Na  Na3921  1  0.63879125  0.29870875  0.21875000  1
  Na  Na3922  1  0.63879125  0.29870875  0.34375000  1
  Na  Na3923  1  0.63879125  0.29870875  0.46875000  1
  Na  Na3924  1  0.63879125  0.29870875  0.59375000  1
  Na  Na3925  1  0.63879125  0.29870875  0.71875000  1
  Na  Na3926  1  0.63879125  0.29870875  0.84375000  1
  Na  Na3927  1  0.63879125  0.29870875  0.96875000  1
  Na  Na3928  1  0.63879125  0.42370875  0.09375000  1
  Na  Na3929  1  0.63879125  0.42370875  0.21875000  1
  Na  Na3930  1  0.63879125  0.42370875  0.34375000  1
  Na  Na3931  1  0.63879125  0.42370875  0.46875000  1
  Na  Na3932  1  0.63879125  0.42370875  0.59375000  1
  Na  Na3933  1  0.63879125  0.42370875  0.71875000  1
  Na  Na3934  1  0.63879125  0.42370875  0.84375000  1
  Na  Na3935  1  0.63879125  0.42370875  0.96875000  1
  Na  Na3936  1  0.63879125  0.54870875  0.09375000  1
  Na  Na3937  1  0.63879125  0.54870875  0.21875000  1
  Na  Na3938  1  0.63879125  0.54870875  0.34375000  1
  Na  Na3939  1  0.63879125  0.54870875  0.46875000  1
  Na  Na3940  1  0.63879125  0.54870875  0.59375000  1
  Na  Na3941  1  0.63879125  0.54870875  0.71875000  1
  Na  Na3942  1  0.63879125  0.54870875  0.84375000  1
  Na  Na3943  1  0.63879125  0.54870875  0.96875000  1
  Na  Na3944  1  0.63879125  0.67370875  0.09375000  1
  Na  Na3945  1  0.63879125  0.67370875  0.21875000  1
  Na  Na3946  1  0.63879125  0.67370875  0.34375000  1
  Na  Na3947  1  0.63879125  0.67370875  0.46875000  1
  Na  Na3948  1  0.63879125  0.67370875  0.59375000  1
  Na  Na3949  1  0.63879125  0.67370875  0.71875000  1
  Na  Na3950  1  0.63879125  0.67370875  0.84375000  1
  Na  Na3951  1  0.63879125  0.67370875  0.96875000  1
  Na  Na3952  1  0.63879125  0.79870875  0.09375000  1
  Na  Na3953  1  0.63879125  0.79870875  0.21875000  1
  Na  Na3954  1  0.63879125  0.79870875  0.34375000  1
  Na  Na3955  1  0.63879125  0.79870875  0.46875000  1
  Na  Na3956  1  0.63879125  0.79870875  0.59375000  1
  Na  Na3957  1  0.63879125  0.79870875  0.71875000  1
  Na  Na3958  1  0.63879125  0.79870875  0.84375000  1
  Na  Na3959  1  0.63879125  0.79870875  0.96875000  1
  Na  Na3960  1  0.63879125  0.92370875  0.09375000  1
  Na  Na3961  1  0.63879125  0.92370875  0.21875000  1
  Na  Na3962  1  0.63879125  0.92370875  0.34375000  1
  Na  Na3963  1  0.63879125  0.92370875  0.46875000  1
  Na  Na3964  1  0.63879125  0.92370875  0.59375000  1
  Na  Na3965  1  0.63879125  0.92370875  0.71875000  1
  Na  Na3966  1  0.63879125  0.92370875  0.84375000  1
  Na  Na3967  1  0.63879125  0.92370875  0.96875000  1
  Na  Na3968  1  0.76379125  0.04870875  0.09375000  1
  Na  Na3969  1  0.76379125  0.04870875  0.21875000  1
  Na  Na3970  1  0.76379125  0.04870875  0.34375000  1
  Na  Na3971  1  0.76379125  0.04870875  0.46875000  1
  Na  Na3972  1  0.76379125  0.04870875  0.59375000  1
  Na  Na3973  1  0.76379125  0.04870875  0.71875000  1
  Na  Na3974  1  0.76379125  0.04870875  0.84375000  1
  Na  Na3975  1  0.76379125  0.04870875  0.96875000  1
  Na  Na3976  1  0.76379125  0.17370875  0.09375000  1
  Na  Na3977  1  0.76379125  0.17370875  0.21875000  1
  Na  Na3978  1  0.76379125  0.17370875  0.34375000  1
  Na  Na3979  1  0.76379125  0.17370875  0.46875000  1
  Na  Na3980  1  0.76379125  0.17370875  0.59375000  1
  Na  Na3981  1  0.76379125  0.17370875  0.71875000  1
  Na  Na3982  1  0.76379125  0.17370875  0.84375000  1
  Na  Na3983  1  0.76379125  0.17370875  0.96875000  1
  Na  Na3984  1  0.76379125  0.29870875  0.09375000  1
  Na  Na3985  1  0.76379125  0.29870875  0.21875000  1
  Na  Na3986  1  0.76379125  0.29870875  0.34375000  1
  Na  Na3987  1  0.76379125  0.29870875  0.46875000  1
  Na  Na3988  1  0.76379125  0.29870875  0.59375000  1
  Na  Na3989  1  0.76379125  0.29870875  0.71875000  1
  Na  Na3990  1  0.76379125  0.29870875  0.84375000  1
  Na  Na3991  1  0.76379125  0.29870875  0.96875000  1
  Na  Na3992  1  0.76379125  0.42370875  0.09375000  1
  Na  Na3993  1  0.76379125  0.42370875  0.21875000  1
  Na  Na3994  1  0.76379125  0.42370875  0.34375000  1
  Na  Na3995  1  0.76379125  0.42370875  0.46875000  1
  Na  Na3996  1  0.76379125  0.42370875  0.59375000  1
  Na  Na3997  1  0.76379125  0.42370875  0.71875000  1
  Na  Na3998  1  0.76379125  0.42370875  0.84375000  1
  Na  Na3999  1  0.76379125  0.42370875  0.96875000  1
  Na  Na4000  1  0.76379125  0.54870875  0.09375000  1
  Na  Na4001  1  0.76379125  0.54870875  0.21875000  1
  Na  Na4002  1  0.76379125  0.54870875  0.34375000  1
  Na  Na4003  1  0.76379125  0.54870875  0.46875000  1
  Na  Na4004  1  0.76379125  0.54870875  0.59375000  1
  Na  Na4005  1  0.76379125  0.54870875  0.71875000  1
  Na  Na4006  1  0.76379125  0.54870875  0.84375000  1
  Na  Na4007  1  0.76379125  0.54870875  0.96875000  1
  Na  Na4008  1  0.76379125  0.67370875  0.09375000  1
  Na  Na4009  1  0.76379125  0.67370875  0.21875000  1
  Na  Na4010  1  0.76379125  0.67370875  0.34375000  1
  Na  Na4011  1  0.76379125  0.67370875  0.46875000  1
  Na  Na4012  1  0.76379125  0.67370875  0.59375000  1
  Na  Na4013  1  0.76379125  0.67370875  0.71875000  1
  Na  Na4014  1  0.76379125  0.67370875  0.84375000  1
  Na  Na4015  1  0.76379125  0.67370875  0.96875000  1
  Na  Na4016  1  0.76379125  0.79870875  0.09375000  1
  Na  Na4017  1  0.76379125  0.79870875  0.21875000  1
  Na  Na4018  1  0.76379125  0.79870875  0.34375000  1
  Na  Na4019  1  0.76379125  0.79870875  0.46875000  1
  Na  Na4020  1  0.76379125  0.79870875  0.59375000  1
  Na  Na4021  1  0.76379125  0.79870875  0.71875000  1
  Na  Na4022  1  0.76379125  0.79870875  0.84375000  1
  Na  Na4023  1  0.76379125  0.79870875  0.96875000  1
  Na  Na4024  1  0.76379125  0.92370875  0.09375000  1
  Na  Na4025  1  0.76379125  0.92370875  0.21875000  1
  Na  Na4026  1  0.76379125  0.92370875  0.34375000  1
  Na  Na4027  1  0.76379125  0.92370875  0.46875000  1
  Na  Na4028  1  0.76379125  0.92370875  0.59375000  1
  Na  Na4029  1  0.76379125  0.92370875  0.71875000  1
  Na  Na4030  1  0.76379125  0.92370875  0.84375000  1
  Na  Na4031  1  0.76379125  0.92370875  0.96875000  1
  Na  Na4032  1  0.88879125  0.04870875  0.09375000  1
  Na  Na4033  1  0.88879125  0.04870875  0.21875000  1
  Na  Na4034  1  0.88879125  0.04870875  0.34375000  1
  Na  Na4035  1  0.88879125  0.04870875  0.46875000  1
  Na  Na4036  1  0.88879125  0.04870875  0.59375000  1
  Na  Na4037  1  0.88879125  0.04870875  0.71875000  1
  Na  Na4038  1  0.88879125  0.04870875  0.84375000  1
  Na  Na4039  1  0.88879125  0.04870875  0.96875000  1
  Na  Na4040  1  0.88879125  0.17370875  0.09375000  1
  Na  Na4041  1  0.88879125  0.17370875  0.21875000  1
  Na  Na4042  1  0.88879125  0.17370875  0.34375000  1
  Na  Na4043  1  0.88879125  0.17370875  0.46875000  1
  Na  Na4044  1  0.88879125  0.17370875  0.59375000  1
  Na  Na4045  1  0.88879125  0.17370875  0.71875000  1
  Na  Na4046  1  0.88879125  0.17370875  0.84375000  1
  Na  Na4047  1  0.88879125  0.17370875  0.96875000  1
  Na  Na4048  1  0.88879125  0.29870875  0.09375000  1
  Na  Na4049  1  0.88879125  0.29870875  0.21875000  1
  Na  Na4050  1  0.88879125  0.29870875  0.34375000  1
  Na  Na4051  1  0.88879125  0.29870875  0.46875000  1
  Na  Na4052  1  0.88879125  0.29870875  0.59375000  1
  Na  Na4053  1  0.88879125  0.29870875  0.71875000  1
  Na  Na4054  1  0.88879125  0.29870875  0.84375000  1
  Na  Na4055  1  0.88879125  0.29870875  0.96875000  1
  Na  Na4056  1  0.88879125  0.42370875  0.09375000  1
  Na  Na4057  1  0.88879125  0.42370875  0.21875000  1
  Na  Na4058  1  0.88879125  0.42370875  0.34375000  1
  Na  Na4059  1  0.88879125  0.42370875  0.46875000  1
  Na  Na4060  1  0.88879125  0.42370875  0.59375000  1
  Na  Na4061  1  0.88879125  0.42370875  0.71875000  1
  Na  Na4062  1  0.88879125  0.42370875  0.84375000  1
  Na  Na4063  1  0.88879125  0.42370875  0.96875000  1
  Na  Na4064  1  0.88879125  0.54870875  0.09375000  1
  Na  Na4065  1  0.88879125  0.54870875  0.21875000  1
  Na  Na4066  1  0.88879125  0.54870875  0.34375000  1
  Na  Na4067  1  0.88879125  0.54870875  0.46875000  1
  Na  Na4068  1  0.88879125  0.54870875  0.59375000  1
  Na  Na4069  1  0.88879125  0.54870875  0.71875000  1
  Na  Na4070  1  0.88879125  0.54870875  0.84375000  1
  Na  Na4071  1  0.88879125  0.54870875  0.96875000  1
  Na  Na4072  1  0.88879125  0.67370875  0.09375000  1
  Na  Na4073  1  0.88879125  0.67370875  0.21875000  1
  Na  Na4074  1  0.88879125  0.67370875  0.34375000  1
  Na  Na4075  1  0.88879125  0.67370875  0.46875000  1
  Na  Na4076  1  0.88879125  0.67370875  0.59375000  1
  Na  Na4077  1  0.88879125  0.67370875  0.71875000  1
  Na  Na4078  1  0.88879125  0.67370875  0.84375000  1
  Na  Na4079  1  0.88879125  0.67370875  0.96875000  1
  Na  Na4080  1  0.88879125  0.79870875  0.09375000  1
  Na  Na4081  1  0.88879125  0.79870875  0.21875000  1
  Na  Na4082  1  0.88879125  0.79870875  0.34375000  1
  Na  Na4083  1  0.88879125  0.79870875  0.46875000  1
  Na  Na4084  1  0.88879125  0.79870875  0.59375000  1
  Na  Na4085  1  0.88879125  0.79870875  0.71875000  1
  Na  Na4086  1  0.88879125  0.79870875  0.84375000  1
  Na  Na4087  1  0.88879125  0.79870875  0.96875000  1
  Na  Na4088  1  0.88879125  0.92370875  0.09375000  1
  Na  Na4089  1  0.88879125  0.92370875  0.21875000  1
  Na  Na4090  1  0.88879125  0.92370875  0.34375000  1
  Na  Na4091  1  0.88879125  0.92370875  0.46875000  1
  Na  Na4092  1  0.88879125  0.92370875  0.59375000  1
  Na  Na4093  1  0.88879125  0.92370875  0.71875000  1
  Na  Na4094  1  0.88879125  0.92370875  0.84375000  1
  Na  Na4095  1  0.88879125  0.92370875  0.96875000  1
  Si  Si4096  1  0.06818000  0.11932000  0.03125000  1
  Si  Si4097  1  0.06818000  0.11932000  0.15625000  1
  Si  Si4098  1  0.06818000  0.11932000  0.28125000  1
  Si  Si4099  1  0.06818000  0.11932000  0.40625000  1
  Si  Si4100  1  0.06818000  0.11932000  0.53125000  1
  Si  Si4101  1  0.06818000  0.11932000  0.65625000  1
  Si  Si4102  1  0.06818000  0.11932000  0.78125000  1
  Si  Si4103  1  0.06818000  0.11932000  0.90625000  1
  Si  Si4104  1  0.06818000  0.24432000  0.03125000  1
  Si  Si4105  1  0.06818000  0.24432000  0.15625000  1
  Si  Si4106  1  0.06818000  0.24432000  0.28125000  1
  Si  Si4107  1  0.06818000  0.24432000  0.40625000  1
  Si  Si4108  1  0.06818000  0.24432000  0.53125000  1
  Si  Si4109  1  0.06818000  0.24432000  0.65625000  1
  Si  Si4110  1  0.06818000  0.24432000  0.78125000  1
  Si  Si4111  1  0.06818000  0.24432000  0.90625000  1
  Si  Si4112  1  0.06818000  0.36932000  0.03125000  1
  Si  Si4113  1  0.06818000  0.36932000  0.15625000  1
  Si  Si4114  1  0.06818000  0.36932000  0.28125000  1
  Si  Si4115  1  0.06818000  0.36932000  0.40625000  1
  Si  Si4116  1  0.06818000  0.36932000  0.53125000  1
  Si  Si4117  1  0.06818000  0.36932000  0.65625000  1
  Si  Si4118  1  0.06818000  0.36932000  0.78125000  1
  Si  Si4119  1  0.06818000  0.36932000  0.90625000  1
  Si  Si4120  1  0.06818000  0.49432000  0.03125000  1
  Si  Si4121  1  0.06818000  0.49432000  0.15625000  1
  Si  Si4122  1  0.06818000  0.49432000  0.28125000  1
  Si  Si4123  1  0.06818000  0.49432000  0.40625000  1
  Si  Si4124  1  0.06818000  0.49432000  0.53125000  1
  Si  Si4125  1  0.06818000  0.49432000  0.65625000  1
  Si  Si4126  1  0.06818000  0.49432000  0.78125000  1
  Si  Si4127  1  0.06818000  0.49432000  0.90625000  1
  Si  Si4128  1  0.06818000  0.61932000  0.03125000  1
  Si  Si4129  1  0.06818000  0.61932000  0.15625000  1
  Si  Si4130  1  0.06818000  0.61932000  0.28125000  1
  Si  Si4131  1  0.06818000  0.61932000  0.40625000  1
  Si  Si4132  1  0.06818000  0.61932000  0.53125000  1
  Si  Si4133  1  0.06818000  0.61932000  0.65625000  1
  Si  Si4134  1  0.06818000  0.61932000  0.78125000  1
  Si  Si4135  1  0.06818000  0.61932000  0.90625000  1
  Si  Si4136  1  0.06818000  0.74432000  0.03125000  1
  Si  Si4137  1  0.06818000  0.74432000  0.15625000  1
  Si  Si4138  1  0.06818000  0.74432000  0.28125000  1
  Si  Si4139  1  0.06818000  0.74432000  0.40625000  1
  Si  Si4140  1  0.06818000  0.74432000  0.53125000  1
  Si  Si4141  1  0.06818000  0.74432000  0.65625000  1
  Si  Si4142  1  0.06818000  0.74432000  0.78125000  1
  Si  Si4143  1  0.06818000  0.74432000  0.90625000  1
  Si  Si4144  1  0.06818000  0.86932000  0.03125000  1
  Si  Si4145  1  0.06818000  0.86932000  0.15625000  1
  Si  Si4146  1  0.06818000  0.86932000  0.28125000  1
  Si  Si4147  1  0.06818000  0.86932000  0.40625000  1
  Si  Si4148  1  0.06818000  0.86932000  0.53125000  1
  Si  Si4149  1  0.06818000  0.86932000  0.65625000  1
  Si  Si4150  1  0.06818000  0.86932000  0.78125000  1
  Si  Si4151  1  0.06818000  0.86932000  0.90625000  1
  Si  Si4152  1  0.06818000  0.99432000  0.03125000  1
  Si  Si4153  1  0.06818000  0.99432000  0.15625000  1
  Si  Si4154  1  0.06818000  0.99432000  0.28125000  1
  Si  Si4155  1  0.06818000  0.99432000  0.40625000  1
  Si  Si4156  1  0.06818000  0.99432000  0.53125000  1
  Si  Si4157  1  0.06818000  0.99432000  0.65625000  1
  Si  Si4158  1  0.06818000  0.99432000  0.78125000  1
  Si  Si4159  1  0.06818000  0.99432000  0.90625000  1
  Si  Si4160  1  0.19318000  0.11932000  0.03125000  1
  Si  Si4161  1  0.19318000  0.11932000  0.15625000  1
  Si  Si4162  1  0.19318000  0.11932000  0.28125000  1
  Si  Si4163  1  0.19318000  0.11932000  0.40625000  1
  Si  Si4164  1  0.19318000  0.11932000  0.53125000  1
  Si  Si4165  1  0.19318000  0.11932000  0.65625000  1
  Si  Si4166  1  0.19318000  0.11932000  0.78125000  1
  Si  Si4167  1  0.19318000  0.11932000  0.90625000  1
  Si  Si4168  1  0.19318000  0.24432000  0.03125000  1
  Si  Si4169  1  0.19318000  0.24432000  0.15625000  1
  Si  Si4170  1  0.19318000  0.24432000  0.28125000  1
  Si  Si4171  1  0.19318000  0.24432000  0.40625000  1
  Si  Si4172  1  0.19318000  0.24432000  0.53125000  1
  Si  Si4173  1  0.19318000  0.24432000  0.65625000  1
  Si  Si4174  1  0.19318000  0.24432000  0.78125000  1
  Si  Si4175  1  0.19318000  0.24432000  0.90625000  1
  Si  Si4176  1  0.19318000  0.36932000  0.03125000  1
  Si  Si4177  1  0.19318000  0.36932000  0.15625000  1
  Si  Si4178  1  0.19318000  0.36932000  0.28125000  1
  Si  Si4179  1  0.19318000  0.36932000  0.40625000  1
  Si  Si4180  1  0.19318000  0.36932000  0.53125000  1
  Si  Si4181  1  0.19318000  0.36932000  0.65625000  1
  Si  Si4182  1  0.19318000  0.36932000  0.78125000  1
  Si  Si4183  1  0.19318000  0.36932000  0.90625000  1
  Si  Si4184  1  0.19318000  0.49432000  0.03125000  1
  Si  Si4185  1  0.19318000  0.49432000  0.15625000  1
  Si  Si4186  1  0.19318000  0.49432000  0.28125000  1
  Si  Si4187  1  0.19318000  0.49432000  0.40625000  1
  Si  Si4188  1  0.19318000  0.49432000  0.53125000  1
  Si  Si4189  1  0.19318000  0.49432000  0.65625000  1
  Si  Si4190  1  0.19318000  0.49432000  0.78125000  1
  Si  Si4191  1  0.19318000  0.49432000  0.90625000  1
  Si  Si4192  1  0.19318000  0.61932000  0.03125000  1
  Si  Si4193  1  0.19318000  0.61932000  0.15625000  1
  Si  Si4194  1  0.19318000  0.61932000  0.28125000  1
  Si  Si4195  1  0.19318000  0.61932000  0.40625000  1
  Si  Si4196  1  0.19318000  0.61932000  0.53125000  1
  Si  Si4197  1  0.19318000  0.61932000  0.65625000  1
  Si  Si4198  1  0.19318000  0.61932000  0.78125000  1
  Si  Si4199  1  0.19318000  0.61932000  0.90625000  1
  Si  Si4200  1  0.19318000  0.74432000  0.03125000  1
  Si  Si4201  1  0.19318000  0.74432000  0.15625000  1
  Si  Si4202  1  0.19318000  0.74432000  0.28125000  1
  Si  Si4203  1  0.19318000  0.74432000  0.40625000  1
  Si  Si4204  1  0.19318000  0.74432000  0.53125000  1
  Si  Si4205  1  0.19318000  0.74432000  0.65625000  1
  Si  Si4206  1  0.19318000  0.74432000  0.78125000  1
  Si  Si4207  1  0.19318000  0.74432000  0.90625000  1
  Si  Si4208  1  0.19318000  0.86932000  0.03125000  1
  Si  Si4209  1  0.19318000  0.86932000  0.15625000  1
  Si  Si4210  1  0.19318000  0.86932000  0.28125000  1
  Si  Si4211  1  0.19318000  0.86932000  0.40625000  1
  Si  Si4212  1  0.19318000  0.86932000  0.53125000  1
  Si  Si4213  1  0.19318000  0.86932000  0.65625000  1
  Si  Si4214  1  0.19318000  0.86932000  0.78125000  1
  Si  Si4215  1  0.19318000  0.86932000  0.90625000  1
  Si  Si4216  1  0.19318000  0.99432000  0.03125000  1
  Si  Si4217  1  0.19318000  0.99432000  0.15625000  1
  Si  Si4218  1  0.19318000  0.99432000  0.28125000  1
  Si  Si4219  1  0.19318000  0.99432000  0.40625000  1
  Si  Si4220  1  0.19318000  0.99432000  0.53125000  1
  Si  Si4221  1  0.19318000  0.99432000  0.65625000  1
  Si  Si4222  1  0.19318000  0.99432000  0.78125000  1
  Si  Si4223  1  0.19318000  0.99432000  0.90625000  1
  Si  Si4224  1  0.31818000  0.11932000  0.03125000  1
  Si  Si4225  1  0.31818000  0.11932000  0.15625000  1
  Si  Si4226  1  0.31818000  0.11932000  0.28125000  1
  Si  Si4227  1  0.31818000  0.11932000  0.40625000  1
  Si  Si4228  1  0.31818000  0.11932000  0.53125000  1
  Si  Si4229  1  0.31818000  0.11932000  0.65625000  1
  Si  Si4230  1  0.31818000  0.11932000  0.78125000  1
  Si  Si4231  1  0.31818000  0.11932000  0.90625000  1
  Si  Si4232  1  0.31818000  0.24432000  0.03125000  1
  Si  Si4233  1  0.31818000  0.24432000  0.15625000  1
  Si  Si4234  1  0.31818000  0.24432000  0.28125000  1
  Si  Si4235  1  0.31818000  0.24432000  0.40625000  1
  Si  Si4236  1  0.31818000  0.24432000  0.53125000  1
  Si  Si4237  1  0.31818000  0.24432000  0.65625000  1
  Si  Si4238  1  0.31818000  0.24432000  0.78125000  1
  Si  Si4239  1  0.31818000  0.24432000  0.90625000  1
  Si  Si4240  1  0.31818000  0.36932000  0.03125000  1
  Si  Si4241  1  0.31818000  0.36932000  0.15625000  1
  Si  Si4242  1  0.31818000  0.36932000  0.28125000  1
  Si  Si4243  1  0.31818000  0.36932000  0.40625000  1
  Si  Si4244  1  0.31818000  0.36932000  0.53125000  1
  Si  Si4245  1  0.31818000  0.36932000  0.65625000  1
  Si  Si4246  1  0.31818000  0.36932000  0.78125000  1
  Si  Si4247  1  0.31818000  0.36932000  0.90625000  1
  Si  Si4248  1  0.31818000  0.49432000  0.03125000  1
  Si  Si4249  1  0.31818000  0.49432000  0.15625000  1
  Si  Si4250  1  0.31818000  0.49432000  0.28125000  1
  Si  Si4251  1  0.31818000  0.49432000  0.40625000  1
  Si  Si4252  1  0.31818000  0.49432000  0.53125000  1
  Si  Si4253  1  0.31818000  0.49432000  0.65625000  1
  Si  Si4254  1  0.31818000  0.49432000  0.78125000  1
  Si  Si4255  1  0.31818000  0.49432000  0.90625000  1
  Si  Si4256  1  0.31818000  0.61932000  0.03125000  1
  Si  Si4257  1  0.31818000  0.61932000  0.15625000  1
  Si  Si4258  1  0.31818000  0.61932000  0.28125000  1
  Si  Si4259  1  0.31818000  0.61932000  0.40625000  1
  Si  Si4260  1  0.31818000  0.61932000  0.53125000  1
  Si  Si4261  1  0.31818000  0.61932000  0.65625000  1
  Si  Si4262  1  0.31818000  0.61932000  0.78125000  1
  Si  Si4263  1  0.31818000  0.61932000  0.90625000  1
  Si  Si4264  1  0.31818000  0.74432000  0.03125000  1
  Si  Si4265  1  0.31818000  0.74432000  0.15625000  1
  Si  Si4266  1  0.31818000  0.74432000  0.28125000  1
  Si  Si4267  1  0.31818000  0.74432000  0.40625000  1
  Si  Si4268  1  0.31818000  0.74432000  0.53125000  1
  Si  Si4269  1  0.31818000  0.74432000  0.65625000  1
  Si  Si4270  1  0.31818000  0.74432000  0.78125000  1
  Si  Si4271  1  0.31818000  0.74432000  0.90625000  1
  Si  Si4272  1  0.31818000  0.86932000  0.03125000  1
  Si  Si4273  1  0.31818000  0.86932000  0.15625000  1
  Si  Si4274  1  0.31818000  0.86932000  0.28125000  1
  Si  Si4275  1  0.31818000  0.86932000  0.40625000  1
  Si  Si4276  1  0.31818000  0.86932000  0.53125000  1
  Si  Si4277  1  0.31818000  0.86932000  0.65625000  1
  Si  Si4278  1  0.31818000  0.86932000  0.78125000  1
  Si  Si4279  1  0.31818000  0.86932000  0.90625000  1
  Si  Si4280  1  0.31818000  0.99432000  0.03125000  1
  Si  Si4281  1  0.31818000  0.99432000  0.15625000  1
  Si  Si4282  1  0.31818000  0.99432000  0.28125000  1
  Si  Si4283  1  0.31818000  0.99432000  0.40625000  1
  Si  Si4284  1  0.31818000  0.99432000  0.53125000  1
  Si  Si4285  1  0.31818000  0.99432000  0.65625000  1
  Si  Si4286  1  0.31818000  0.99432000  0.78125000  1
  Si  Si4287  1  0.31818000  0.99432000  0.90625000  1
  Si  Si4288  1  0.44318000  0.11932000  0.03125000  1
  Si  Si4289  1  0.44318000  0.11932000  0.15625000  1
  Si  Si4290  1  0.44318000  0.11932000  0.28125000  1
  Si  Si4291  1  0.44318000  0.11932000  0.40625000  1
  Si  Si4292  1  0.44318000  0.11932000  0.53125000  1
  Si  Si4293  1  0.44318000  0.11932000  0.65625000  1
  Si  Si4294  1  0.44318000  0.11932000  0.78125000  1
  Si  Si4295  1  0.44318000  0.11932000  0.90625000  1
  Si  Si4296  1  0.44318000  0.24432000  0.03125000  1
  Si  Si4297  1  0.44318000  0.24432000  0.15625000  1
  Si  Si4298  1  0.44318000  0.24432000  0.28125000  1
  Si  Si4299  1  0.44318000  0.24432000  0.40625000  1
  Si  Si4300  1  0.44318000  0.24432000  0.53125000  1
  Si  Si4301  1  0.44318000  0.24432000  0.65625000  1
  Si  Si4302  1  0.44318000  0.24432000  0.78125000  1
  Si  Si4303  1  0.44318000  0.24432000  0.90625000  1
  Si  Si4304  1  0.44318000  0.36932000  0.03125000  1
  Si  Si4305  1  0.44318000  0.36932000  0.15625000  1
  Si  Si4306  1  0.44318000  0.36932000  0.28125000  1
  Si  Si4307  1  0.44318000  0.36932000  0.40625000  1
  Si  Si4308  1  0.44318000  0.36932000  0.53125000  1
  Si  Si4309  1  0.44318000  0.36932000  0.65625000  1
  Si  Si4310  1  0.44318000  0.36932000  0.78125000  1
  Si  Si4311  1  0.44318000  0.36932000  0.90625000  1
  Si  Si4312  1  0.44318000  0.49432000  0.03125000  1
  Si  Si4313  1  0.44318000  0.49432000  0.15625000  1
  Si  Si4314  1  0.44318000  0.49432000  0.28125000  1
  Si  Si4315  1  0.44318000  0.49432000  0.40625000  1
  Si  Si4316  1  0.44318000  0.49432000  0.53125000  1
  Si  Si4317  1  0.44318000  0.49432000  0.65625000  1
  Si  Si4318  1  0.44318000  0.49432000  0.78125000  1
  Si  Si4319  1  0.44318000  0.49432000  0.90625000  1
  Si  Si4320  1  0.44318000  0.61932000  0.03125000  1
  Si  Si4321  1  0.44318000  0.61932000  0.15625000  1
  Si  Si4322  1  0.44318000  0.61932000  0.28125000  1
  Si  Si4323  1  0.44318000  0.61932000  0.40625000  1
  Si  Si4324  1  0.44318000  0.61932000  0.53125000  1
  Si  Si4325  1  0.44318000  0.61932000  0.65625000  1
  Si  Si4326  1  0.44318000  0.61932000  0.78125000  1
  Si  Si4327  1  0.44318000  0.61932000  0.90625000  1
  Si  Si4328  1  0.44318000  0.74432000  0.03125000  1
  Si  Si4329  1  0.44318000  0.74432000  0.15625000  1
  Si  Si4330  1  0.44318000  0.74432000  0.28125000  1
  Si  Si4331  1  0.44318000  0.74432000  0.40625000  1
  Si  Si4332  1  0.44318000  0.74432000  0.53125000  1
  Si  Si4333  1  0.44318000  0.74432000  0.65625000  1
  Si  Si4334  1  0.44318000  0.74432000  0.78125000  1
  Si  Si4335  1  0.44318000  0.74432000  0.90625000  1
  Si  Si4336  1  0.44318000  0.86932000  0.03125000  1
  Si  Si4337  1  0.44318000  0.86932000  0.15625000  1
  Si  Si4338  1  0.44318000  0.86932000  0.28125000  1
  Si  Si4339  1  0.44318000  0.86932000  0.40625000  1
  Si  Si4340  1  0.44318000  0.86932000  0.53125000  1
  Si  Si4341  1  0.44318000  0.86932000  0.65625000  1
  Si  Si4342  1  0.44318000  0.86932000  0.78125000  1
  Si  Si4343  1  0.44318000  0.86932000  0.90625000  1
  Si  Si4344  1  0.44318000  0.99432000  0.03125000  1
  Si  Si4345  1  0.44318000  0.99432000  0.15625000  1
  Si  Si4346  1  0.44318000  0.99432000  0.28125000  1
  Si  Si4347  1  0.44318000  0.99432000  0.40625000  1
  Si  Si4348  1  0.44318000  0.99432000  0.53125000  1
  Si  Si4349  1  0.44318000  0.99432000  0.65625000  1
  Si  Si4350  1  0.44318000  0.99432000  0.78125000  1
  Si  Si4351  1  0.44318000  0.99432000  0.90625000  1
  Si  Si4352  1  0.56818000  0.11932000  0.03125000  1
  Si  Si4353  1  0.56818000  0.11932000  0.15625000  1
  Si  Si4354  1  0.56818000  0.11932000  0.28125000  1
  Si  Si4355  1  0.56818000  0.11932000  0.40625000  1
  Si  Si4356  1  0.56818000  0.11932000  0.53125000  1
  Si  Si4357  1  0.56818000  0.11932000  0.65625000  1
  Si  Si4358  1  0.56818000  0.11932000  0.78125000  1
  Si  Si4359  1  0.56818000  0.11932000  0.90625000  1
  Si  Si4360  1  0.56818000  0.24432000  0.03125000  1
  Si  Si4361  1  0.56818000  0.24432000  0.15625000  1
  Si  Si4362  1  0.56818000  0.24432000  0.28125000  1
  Si  Si4363  1  0.56818000  0.24432000  0.40625000  1
  Si  Si4364  1  0.56818000  0.24432000  0.53125000  1
  Si  Si4365  1  0.56818000  0.24432000  0.65625000  1
  Si  Si4366  1  0.56818000  0.24432000  0.78125000  1
  Si  Si4367  1  0.56818000  0.24432000  0.90625000  1
  Si  Si4368  1  0.56818000  0.36932000  0.03125000  1
  Si  Si4369  1  0.56818000  0.36932000  0.15625000  1
  Si  Si4370  1  0.56818000  0.36932000  0.28125000  1
  Si  Si4371  1  0.56818000  0.36932000  0.40625000  1
  Si  Si4372  1  0.56818000  0.36932000  0.53125000  1
  Si  Si4373  1  0.56818000  0.36932000  0.65625000  1
  Si  Si4374  1  0.56818000  0.36932000  0.78125000  1
  Si  Si4375  1  0.56818000  0.36932000  0.90625000  1
  Si  Si4376  1  0.56818000  0.49432000  0.03125000  1
  Si  Si4377  1  0.56818000  0.49432000  0.15625000  1
  Si  Si4378  1  0.56818000  0.49432000  0.28125000  1
  Si  Si4379  1  0.56818000  0.49432000  0.40625000  1
  Si  Si4380  1  0.56818000  0.49432000  0.53125000  1
  Si  Si4381  1  0.56818000  0.49432000  0.65625000  1
  Si  Si4382  1  0.56818000  0.49432000  0.78125000  1
  Si  Si4383  1  0.56818000  0.49432000  0.90625000  1
  Si  Si4384  1  0.56818000  0.61932000  0.03125000  1
  Si  Si4385  1  0.56818000  0.61932000  0.15625000  1
  Si  Si4386  1  0.56818000  0.61932000  0.28125000  1
  Si  Si4387  1  0.56818000  0.61932000  0.40625000  1
  Si  Si4388  1  0.56818000  0.61932000  0.53125000  1
  Si  Si4389  1  0.56818000  0.61932000  0.65625000  1
  Si  Si4390  1  0.56818000  0.61932000  0.78125000  1
  Si  Si4391  1  0.56818000  0.61932000  0.90625000  1
  Si  Si4392  1  0.56818000  0.74432000  0.03125000  1
  Si  Si4393  1  0.56818000  0.74432000  0.15625000  1
  Si  Si4394  1  0.56818000  0.74432000  0.28125000  1
  Si  Si4395  1  0.56818000  0.74432000  0.40625000  1
  Si  Si4396  1  0.56818000  0.74432000  0.53125000  1
  Si  Si4397  1  0.56818000  0.74432000  0.65625000  1
  Si  Si4398  1  0.56818000  0.74432000  0.78125000  1
  Si  Si4399  1  0.56818000  0.74432000  0.90625000  1
  Si  Si4400  1  0.56818000  0.86932000  0.03125000  1
  Si  Si4401  1  0.56818000  0.86932000  0.15625000  1
  Si  Si4402  1  0.56818000  0.86932000  0.28125000  1
  Si  Si4403  1  0.56818000  0.86932000  0.40625000  1
  Si  Si4404  1  0.56818000  0.86932000  0.53125000  1
  Si  Si4405  1  0.56818000  0.86932000  0.65625000  1
  Si  Si4406  1  0.56818000  0.86932000  0.78125000  1
  Si  Si4407  1  0.56818000  0.86932000  0.90625000  1
  Si  Si4408  1  0.56818000  0.99432000  0.03125000  1
  Si  Si4409  1  0.56818000  0.99432000  0.15625000  1
  Si  Si4410  1  0.56818000  0.99432000  0.28125000  1
  Si  Si4411  1  0.56818000  0.99432000  0.40625000  1
  Si  Si4412  1  0.56818000  0.99432000  0.53125000  1
  Si  Si4413  1  0.56818000  0.99432000  0.65625000  1
  Si  Si4414  1  0.56818000  0.99432000  0.78125000  1
  Si  Si4415  1  0.56818000  0.99432000  0.90625000  1
  Si  Si4416  1  0.69318000  0.11932000  0.03125000  1
  Si  Si4417  1  0.69318000  0.11932000  0.15625000  1
  Si  Si4418  1  0.69318000  0.11932000  0.28125000  1
  Si  Si4419  1  0.69318000  0.11932000  0.40625000  1
  Si  Si4420  1  0.69318000  0.11932000  0.53125000  1
  Si  Si4421  1  0.69318000  0.11932000  0.65625000  1
  Si  Si4422  1  0.69318000  0.11932000  0.78125000  1
  Si  Si4423  1  0.69318000  0.11932000  0.90625000  1
  Si  Si4424  1  0.69318000  0.24432000  0.03125000  1
  Si  Si4425  1  0.69318000  0.24432000  0.15625000  1
  Si  Si4426  1  0.69318000  0.24432000  0.28125000  1
  Si  Si4427  1  0.69318000  0.24432000  0.40625000  1
  Si  Si4428  1  0.69318000  0.24432000  0.53125000  1
  Si  Si4429  1  0.69318000  0.24432000  0.65625000  1
  Si  Si4430  1  0.69318000  0.24432000  0.78125000  1
  Si  Si4431  1  0.69318000  0.24432000  0.90625000  1
  Si  Si4432  1  0.69318000  0.36932000  0.03125000  1
  Si  Si4433  1  0.69318000  0.36932000  0.15625000  1
  Si  Si4434  1  0.69318000  0.36932000  0.28125000  1
  Si  Si4435  1  0.69318000  0.36932000  0.40625000  1
  Si  Si4436  1  0.69318000  0.36932000  0.53125000  1
  Si  Si4437  1  0.69318000  0.36932000  0.65625000  1
  Si  Si4438  1  0.69318000  0.36932000  0.78125000  1
  Si  Si4439  1  0.69318000  0.36932000  0.90625000  1
  Si  Si4440  1  0.69318000  0.49432000  0.03125000  1
  Si  Si4441  1  0.69318000  0.49432000  0.15625000  1
  Si  Si4442  1  0.69318000  0.49432000  0.28125000  1
  Si  Si4443  1  0.69318000  0.49432000  0.40625000  1
  Si  Si4444  1  0.69318000  0.49432000  0.53125000  1
  Si  Si4445  1  0.69318000  0.49432000  0.65625000  1
  Si  Si4446  1  0.69318000  0.49432000  0.78125000  1
  Si  Si4447  1  0.69318000  0.49432000  0.90625000  1
  Si  Si4448  1  0.69318000  0.61932000  0.03125000  1
  Si  Si4449  1  0.69318000  0.61932000  0.15625000  1
  Si  Si4450  1  0.69318000  0.61932000  0.28125000  1
  Si  Si4451  1  0.69318000  0.61932000  0.40625000  1
  Si  Si4452  1  0.69318000  0.61932000  0.53125000  1
  Si  Si4453  1  0.69318000  0.61932000  0.65625000  1
  Si  Si4454  1  0.69318000  0.61932000  0.78125000  1
  Si  Si4455  1  0.69318000  0.61932000  0.90625000  1
  Si  Si4456  1  0.69318000  0.74432000  0.03125000  1
  Si  Si4457  1  0.69318000  0.74432000  0.15625000  1
  Si  Si4458  1  0.69318000  0.74432000  0.28125000  1
  Si  Si4459  1  0.69318000  0.74432000  0.40625000  1
  Si  Si4460  1  0.69318000  0.74432000  0.53125000  1
  Si  Si4461  1  0.69318000  0.74432000  0.65625000  1
  Si  Si4462  1  0.69318000  0.74432000  0.78125000  1
  Si  Si4463  1  0.69318000  0.74432000  0.90625000  1
  Si  Si4464  1  0.69318000  0.86932000  0.03125000  1
  Si  Si4465  1  0.69318000  0.86932000  0.15625000  1
  Si  Si4466  1  0.69318000  0.86932000  0.28125000  1
  Si  Si4467  1  0.69318000  0.86932000  0.40625000  1
  Si  Si4468  1  0.69318000  0.86932000  0.53125000  1
  Si  Si4469  1  0.69318000  0.86932000  0.65625000  1
  Si  Si4470  1  0.69318000  0.86932000  0.78125000  1
  Si  Si4471  1  0.69318000  0.86932000  0.90625000  1
  Si  Si4472  1  0.69318000  0.99432000  0.03125000  1
  Si  Si4473  1  0.69318000  0.99432000  0.15625000  1
  Si  Si4474  1  0.69318000  0.99432000  0.28125000  1
  Si  Si4475  1  0.69318000  0.99432000  0.40625000  1
  Si  Si4476  1  0.69318000  0.99432000  0.53125000  1
  Si  Si4477  1  0.69318000  0.99432000  0.65625000  1
  Si  Si4478  1  0.69318000  0.99432000  0.78125000  1
  Si  Si4479  1  0.69318000  0.99432000  0.90625000  1
  Si  Si4480  1  0.81818000  0.11932000  0.03125000  1
  Si  Si4481  1  0.81818000  0.11932000  0.15625000  1
  Si  Si4482  1  0.81818000  0.11932000  0.28125000  1
  Si  Si4483  1  0.81818000  0.11932000  0.40625000  1
  Si  Si4484  1  0.81818000  0.11932000  0.53125000  1
  Si  Si4485  1  0.81818000  0.11932000  0.65625000  1
  Si  Si4486  1  0.81818000  0.11932000  0.78125000  1
  Si  Si4487  1  0.81818000  0.11932000  0.90625000  1
  Si  Si4488  1  0.81818000  0.24432000  0.03125000  1
  Si  Si4489  1  0.81818000  0.24432000  0.15625000  1
  Si  Si4490  1  0.81818000  0.24432000  0.28125000  1
  Si  Si4491  1  0.81818000  0.24432000  0.40625000  1
  Si  Si4492  1  0.81818000  0.24432000  0.53125000  1
  Si  Si4493  1  0.81818000  0.24432000  0.65625000  1
  Si  Si4494  1  0.81818000  0.24432000  0.78125000  1
  Si  Si4495  1  0.81818000  0.24432000  0.90625000  1
  Si  Si4496  1  0.81818000  0.36932000  0.03125000  1
  Si  Si4497  1  0.81818000  0.36932000  0.15625000  1
  Si  Si4498  1  0.81818000  0.36932000  0.28125000  1
  Si  Si4499  1  0.81818000  0.36932000  0.40625000  1
  Si  Si4500  1  0.81818000  0.36932000  0.53125000  1
  Si  Si4501  1  0.81818000  0.36932000  0.65625000  1
  Si  Si4502  1  0.81818000  0.36932000  0.78125000  1
  Si  Si4503  1  0.81818000  0.36932000  0.90625000  1
  Si  Si4504  1  0.81818000  0.49432000  0.03125000  1
  Si  Si4505  1  0.81818000  0.49432000  0.15625000  1
  Si  Si4506  1  0.81818000  0.49432000  0.28125000  1
  Si  Si4507  1  0.81818000  0.49432000  0.40625000  1
  Si  Si4508  1  0.81818000  0.49432000  0.53125000  1
  Si  Si4509  1  0.81818000  0.49432000  0.65625000  1
  Si  Si4510  1  0.81818000  0.49432000  0.78125000  1
  Si  Si4511  1  0.81818000  0.49432000  0.90625000  1
  Si  Si4512  1  0.81818000  0.61932000  0.03125000  1
  Si  Si4513  1  0.81818000  0.61932000  0.15625000  1
  Si  Si4514  1  0.81818000  0.61932000  0.28125000  1
  Si  Si4515  1  0.81818000  0.61932000  0.40625000  1
  Si  Si4516  1  0.81818000  0.61932000  0.53125000  1
  Si  Si4517  1  0.81818000  0.61932000  0.65625000  1
  Si  Si4518  1  0.81818000  0.61932000  0.78125000  1
  Si  Si4519  1  0.81818000  0.61932000  0.90625000  1
  Si  Si4520  1  0.81818000  0.74432000  0.03125000  1
  Si  Si4521  1  0.81818000  0.74432000  0.15625000  1
  Si  Si4522  1  0.81818000  0.74432000  0.28125000  1
  Si  Si4523  1  0.81818000  0.74432000  0.40625000  1
  Si  Si4524  1  0.81818000  0.74432000  0.53125000  1
  Si  Si4525  1  0.81818000  0.74432000  0.65625000  1
  Si  Si4526  1  0.81818000  0.74432000  0.78125000  1
  Si  Si4527  1  0.81818000  0.74432000  0.90625000  1
  Si  Si4528  1  0.81818000  0.86932000  0.03125000  1
  Si  Si4529  1  0.81818000  0.86932000  0.15625000  1
  Si  Si4530  1  0.81818000  0.86932000  0.28125000  1
  Si  Si4531  1  0.81818000  0.86932000  0.40625000  1
  Si  Si4532  1  0.81818000  0.86932000  0.53125000  1
  Si  Si4533  1  0.81818000  0.86932000  0.65625000  1
  Si  Si4534  1  0.81818000  0.86932000  0.78125000  1
  Si  Si4535  1  0.81818000  0.86932000  0.90625000  1
  Si  Si4536  1  0.81818000  0.99432000  0.03125000  1
  Si  Si4537  1  0.81818000  0.99432000  0.15625000  1
  Si  Si4538  1  0.81818000  0.99432000  0.28125000  1
  Si  Si4539  1  0.81818000  0.99432000  0.40625000  1
  Si  Si4540  1  0.81818000  0.99432000  0.53125000  1
  Si  Si4541  1  0.81818000  0.99432000  0.65625000  1
  Si  Si4542  1  0.81818000  0.99432000  0.78125000  1
  Si  Si4543  1  0.81818000  0.99432000  0.90625000  1
  Si  Si4544  1  0.94318000  0.11932000  0.03125000  1
  Si  Si4545  1  0.94318000  0.11932000  0.15625000  1
  Si  Si4546  1  0.94318000  0.11932000  0.28125000  1
  Si  Si4547  1  0.94318000  0.11932000  0.40625000  1
  Si  Si4548  1  0.94318000  0.11932000  0.53125000  1
  Si  Si4549  1  0.94318000  0.11932000  0.65625000  1
  Si  Si4550  1  0.94318000  0.11932000  0.78125000  1
  Si  Si4551  1  0.94318000  0.11932000  0.90625000  1
  Si  Si4552  1  0.94318000  0.24432000  0.03125000  1
  Si  Si4553  1  0.94318000  0.24432000  0.15625000  1
  Si  Si4554  1  0.94318000  0.24432000  0.28125000  1
  Si  Si4555  1  0.94318000  0.24432000  0.40625000  1
  Si  Si4556  1  0.94318000  0.24432000  0.53125000  1
  Si  Si4557  1  0.94318000  0.24432000  0.65625000  1
  Si  Si4558  1  0.94318000  0.24432000  0.78125000  1
  Si  Si4559  1  0.94318000  0.24432000  0.90625000  1
  Si  Si4560  1  0.94318000  0.36932000  0.03125000  1
  Si  Si4561  1  0.94318000  0.36932000  0.15625000  1
  Si  Si4562  1  0.94318000  0.36932000  0.28125000  1
  Si  Si4563  1  0.94318000  0.36932000  0.40625000  1
  Si  Si4564  1  0.94318000  0.36932000  0.53125000  1
  Si  Si4565  1  0.94318000  0.36932000  0.65625000  1
  Si  Si4566  1  0.94318000  0.36932000  0.78125000  1
  Si  Si4567  1  0.94318000  0.36932000  0.90625000  1
  Si  Si4568  1  0.94318000  0.49432000  0.03125000  1
  Si  Si4569  1  0.94318000  0.49432000  0.15625000  1
  Si  Si4570  1  0.94318000  0.49432000  0.28125000  1
  Si  Si4571  1  0.94318000  0.49432000  0.40625000  1
  Si  Si4572  1  0.94318000  0.49432000  0.53125000  1
  Si  Si4573  1  0.94318000  0.49432000  0.65625000  1
  Si  Si4574  1  0.94318000  0.49432000  0.78125000  1
  Si  Si4575  1  0.94318000  0.49432000  0.90625000  1
  Si  Si4576  1  0.94318000  0.61932000  0.03125000  1
  Si  Si4577  1  0.94318000  0.61932000  0.15625000  1
  Si  Si4578  1  0.94318000  0.61932000  0.28125000  1
  Si  Si4579  1  0.94318000  0.61932000  0.40625000  1
  Si  Si4580  1  0.94318000  0.61932000  0.53125000  1
  Si  Si4581  1  0.94318000  0.61932000  0.65625000  1
  Si  Si4582  1  0.94318000  0.61932000  0.78125000  1
  Si  Si4583  1  0.94318000  0.61932000  0.90625000  1
  Si  Si4584  1  0.94318000  0.74432000  0.03125000  1
  Si  Si4585  1  0.94318000  0.74432000  0.15625000  1
  Si  Si4586  1  0.94318000  0.74432000  0.28125000  1
  Si  Si4587  1  0.94318000  0.74432000  0.40625000  1
  Si  Si4588  1  0.94318000  0.74432000  0.53125000  1
  Si  Si4589  1  0.94318000  0.74432000  0.65625000  1
  Si  Si4590  1  0.94318000  0.74432000  0.78125000  1
  Si  Si4591  1  0.94318000  0.74432000  0.90625000  1
  Si  Si4592  1  0.94318000  0.86932000  0.03125000  1
  Si  Si4593  1  0.94318000  0.86932000  0.15625000  1
  Si  Si4594  1  0.94318000  0.86932000  0.28125000  1
  Si  Si4595  1  0.94318000  0.86932000  0.40625000  1
  Si  Si4596  1  0.94318000  0.86932000  0.53125000  1
  Si  Si4597  1  0.94318000  0.86932000  0.65625000  1
  Si  Si4598  1  0.94318000  0.86932000  0.78125000  1
  Si  Si4599  1  0.94318000  0.86932000  0.90625000  1
  Si  Si4600  1  0.94318000  0.99432000  0.03125000  1
  Si  Si4601  1  0.94318000  0.99432000  0.15625000  1
  Si  Si4602  1  0.94318000  0.99432000  0.28125000  1
  Si  Si4603  1  0.94318000  0.99432000  0.40625000  1
  Si  Si4604  1  0.94318000  0.99432000  0.53125000  1
  Si  Si4605  1  0.94318000  0.99432000  0.65625000  1
  Si  Si4606  1  0.94318000  0.99432000  0.78125000  1
  Si  Si4607  1  0.94318000  0.99432000  0.90625000  1
  Si  Si4608  1  0.11932000  0.03125000  0.06818000  1
  Si  Si4609  1  0.11932000  0.03125000  0.19318000  1
  Si  Si4610  1  0.11932000  0.03125000  0.31818000  1
  Si  Si4611  1  0.11932000  0.03125000  0.44318000  1
  Si  Si4612  1  0.11932000  0.03125000  0.56818000  1
  Si  Si4613  1  0.11932000  0.03125000  0.69318000  1
  Si  Si4614  1  0.11932000  0.03125000  0.81818000  1
  Si  Si4615  1  0.11932000  0.03125000  0.94318000  1
  Si  Si4616  1  0.11932000  0.15625000  0.06818000  1
  Si  Si4617  1  0.11932000  0.15625000  0.19318000  1
  Si  Si4618  1  0.11932000  0.15625000  0.31818000  1
  Si  Si4619  1  0.11932000  0.15625000  0.44318000  1
  Si  Si4620  1  0.11932000  0.15625000  0.56818000  1
  Si  Si4621  1  0.11932000  0.15625000  0.69318000  1
  Si  Si4622  1  0.11932000  0.15625000  0.81818000  1
  Si  Si4623  1  0.11932000  0.15625000  0.94318000  1
  Si  Si4624  1  0.11932000  0.28125000  0.06818000  1
  Si  Si4625  1  0.11932000  0.28125000  0.19318000  1
  Si  Si4626  1  0.11932000  0.28125000  0.31818000  1
  Si  Si4627  1  0.11932000  0.28125000  0.44318000  1
  Si  Si4628  1  0.11932000  0.28125000  0.56818000  1
  Si  Si4629  1  0.11932000  0.28125000  0.69318000  1
  Si  Si4630  1  0.11932000  0.28125000  0.81818000  1
  Si  Si4631  1  0.11932000  0.28125000  0.94318000  1
  Si  Si4632  1  0.11932000  0.40625000  0.06818000  1
  Si  Si4633  1  0.11932000  0.40625000  0.19318000  1
  Si  Si4634  1  0.11932000  0.40625000  0.31818000  1
  Si  Si4635  1  0.11932000  0.40625000  0.44318000  1
  Si  Si4636  1  0.11932000  0.40625000  0.56818000  1
  Si  Si4637  1  0.11932000  0.40625000  0.69318000  1
  Si  Si4638  1  0.11932000  0.40625000  0.81818000  1
  Si  Si4639  1  0.11932000  0.40625000  0.94318000  1
  Si  Si4640  1  0.11932000  0.53125000  0.06818000  1
  Si  Si4641  1  0.11932000  0.53125000  0.19318000  1
  Si  Si4642  1  0.11932000  0.53125000  0.31818000  1
  Si  Si4643  1  0.11932000  0.53125000  0.44318000  1
  Si  Si4644  1  0.11932000  0.53125000  0.56818000  1
  Si  Si4645  1  0.11932000  0.53125000  0.69318000  1
  Si  Si4646  1  0.11932000  0.53125000  0.81818000  1
  Si  Si4647  1  0.11932000  0.53125000  0.94318000  1
  Si  Si4648  1  0.11932000  0.65625000  0.06818000  1
  Si  Si4649  1  0.11932000  0.65625000  0.19318000  1
  Si  Si4650  1  0.11932000  0.65625000  0.31818000  1
  Si  Si4651  1  0.11932000  0.65625000  0.44318000  1
  Si  Si4652  1  0.11932000  0.65625000  0.56818000  1
  Si  Si4653  1  0.11932000  0.65625000  0.69318000  1
  Si  Si4654  1  0.11932000  0.65625000  0.81818000  1
  Si  Si4655  1  0.11932000  0.65625000  0.94318000  1
  Si  Si4656  1  0.11932000  0.78125000  0.06818000  1
  Si  Si4657  1  0.11932000  0.78125000  0.19318000  1
  Si  Si4658  1  0.11932000  0.78125000  0.31818000  1
  Si  Si4659  1  0.11932000  0.78125000  0.44318000  1
  Si  Si4660  1  0.11932000  0.78125000  0.56818000  1
  Si  Si4661  1  0.11932000  0.78125000  0.69318000  1
  Si  Si4662  1  0.11932000  0.78125000  0.81818000  1
  Si  Si4663  1  0.11932000  0.78125000  0.94318000  1
  Si  Si4664  1  0.11932000  0.90625000  0.06818000  1
  Si  Si4665  1  0.11932000  0.90625000  0.19318000  1
  Si  Si4666  1  0.11932000  0.90625000  0.31818000  1
  Si  Si4667  1  0.11932000  0.90625000  0.44318000  1
  Si  Si4668  1  0.11932000  0.90625000  0.56818000  1
  Si  Si4669  1  0.11932000  0.90625000  0.69318000  1
  Si  Si4670  1  0.11932000  0.90625000  0.81818000  1
  Si  Si4671  1  0.11932000  0.90625000  0.94318000  1
  Si  Si4672  1  0.24432000  0.03125000  0.06818000  1
  Si  Si4673  1  0.24432000  0.03125000  0.19318000  1
  Si  Si4674  1  0.24432000  0.03125000  0.31818000  1
  Si  Si4675  1  0.24432000  0.03125000  0.44318000  1
  Si  Si4676  1  0.24432000  0.03125000  0.56818000  1
  Si  Si4677  1  0.24432000  0.03125000  0.69318000  1
  Si  Si4678  1  0.24432000  0.03125000  0.81818000  1
  Si  Si4679  1  0.24432000  0.03125000  0.94318000  1
  Si  Si4680  1  0.24432000  0.15625000  0.06818000  1
  Si  Si4681  1  0.24432000  0.15625000  0.19318000  1
  Si  Si4682  1  0.24432000  0.15625000  0.31818000  1
  Si  Si4683  1  0.24432000  0.15625000  0.44318000  1
  Si  Si4684  1  0.24432000  0.15625000  0.56818000  1
  Si  Si4685  1  0.24432000  0.15625000  0.69318000  1
  Si  Si4686  1  0.24432000  0.15625000  0.81818000  1
  Si  Si4687  1  0.24432000  0.15625000  0.94318000  1
  Si  Si4688  1  0.24432000  0.28125000  0.06818000  1
  Si  Si4689  1  0.24432000  0.28125000  0.19318000  1
  Si  Si4690  1  0.24432000  0.28125000  0.31818000  1
  Si  Si4691  1  0.24432000  0.28125000  0.44318000  1
  Si  Si4692  1  0.24432000  0.28125000  0.56818000  1
  Si  Si4693  1  0.24432000  0.28125000  0.69318000  1
  Si  Si4694  1  0.24432000  0.28125000  0.81818000  1
  Si  Si4695  1  0.24432000  0.28125000  0.94318000  1
  Si  Si4696  1  0.24432000  0.40625000  0.06818000  1
  Si  Si4697  1  0.24432000  0.40625000  0.19318000  1
  Si  Si4698  1  0.24432000  0.40625000  0.31818000  1
  Si  Si4699  1  0.24432000  0.40625000  0.44318000  1
  Si  Si4700  1  0.24432000  0.40625000  0.56818000  1
  Si  Si4701  1  0.24432000  0.40625000  0.69318000  1
  Si  Si4702  1  0.24432000  0.40625000  0.81818000  1
  Si  Si4703  1  0.24432000  0.40625000  0.94318000  1
  Si  Si4704  1  0.24432000  0.53125000  0.06818000  1
  Si  Si4705  1  0.24432000  0.53125000  0.19318000  1
  Si  Si4706  1  0.24432000  0.53125000  0.31818000  1
  Si  Si4707  1  0.24432000  0.53125000  0.44318000  1
  Si  Si4708  1  0.24432000  0.53125000  0.56818000  1
  Si  Si4709  1  0.24432000  0.53125000  0.69318000  1
  Si  Si4710  1  0.24432000  0.53125000  0.81818000  1
  Si  Si4711  1  0.24432000  0.53125000  0.94318000  1
  Si  Si4712  1  0.24432000  0.65625000  0.06818000  1
  Si  Si4713  1  0.24432000  0.65625000  0.19318000  1
  Si  Si4714  1  0.24432000  0.65625000  0.31818000  1
  Si  Si4715  1  0.24432000  0.65625000  0.44318000  1
  Si  Si4716  1  0.24432000  0.65625000  0.56818000  1
  Si  Si4717  1  0.24432000  0.65625000  0.69318000  1
  Si  Si4718  1  0.24432000  0.65625000  0.81818000  1
  Si  Si4719  1  0.24432000  0.65625000  0.94318000  1
  Si  Si4720  1  0.24432000  0.78125000  0.06818000  1
  Si  Si4721  1  0.24432000  0.78125000  0.19318000  1
  Si  Si4722  1  0.24432000  0.78125000  0.31818000  1
  Si  Si4723  1  0.24432000  0.78125000  0.44318000  1
  Si  Si4724  1  0.24432000  0.78125000  0.56818000  1
  Si  Si4725  1  0.24432000  0.78125000  0.69318000  1
  Si  Si4726  1  0.24432000  0.78125000  0.81818000  1
  Si  Si4727  1  0.24432000  0.78125000  0.94318000  1
  Si  Si4728  1  0.24432000  0.90625000  0.06818000  1
  Si  Si4729  1  0.24432000  0.90625000  0.19318000  1
  Si  Si4730  1  0.24432000  0.90625000  0.31818000  1
  Si  Si4731  1  0.24432000  0.90625000  0.44318000  1
  Si  Si4732  1  0.24432000  0.90625000  0.56818000  1
  Si  Si4733  1  0.24432000  0.90625000  0.69318000  1
  Si  Si4734  1  0.24432000  0.90625000  0.81818000  1
  Si  Si4735  1  0.24432000  0.90625000  0.94318000  1
  Si  Si4736  1  0.36932000  0.03125000  0.06818000  1
  Si  Si4737  1  0.36932000  0.03125000  0.19318000  1
  Si  Si4738  1  0.36932000  0.03125000  0.31818000  1
  Si  Si4739  1  0.36932000  0.03125000  0.44318000  1
  Si  Si4740  1  0.36932000  0.03125000  0.56818000  1
  Si  Si4741  1  0.36932000  0.03125000  0.69318000  1
  Si  Si4742  1  0.36932000  0.03125000  0.81818000  1
  Si  Si4743  1  0.36932000  0.03125000  0.94318000  1
  Si  Si4744  1  0.36932000  0.15625000  0.06818000  1
  Si  Si4745  1  0.36932000  0.15625000  0.19318000  1
  Si  Si4746  1  0.36932000  0.15625000  0.31818000  1
  Si  Si4747  1  0.36932000  0.15625000  0.44318000  1
  Si  Si4748  1  0.36932000  0.15625000  0.56818000  1
  Si  Si4749  1  0.36932000  0.15625000  0.69318000  1
  Si  Si4750  1  0.36932000  0.15625000  0.81818000  1
  Si  Si4751  1  0.36932000  0.15625000  0.94318000  1
  Si  Si4752  1  0.36932000  0.28125000  0.06818000  1
  Si  Si4753  1  0.36932000  0.28125000  0.19318000  1
  Si  Si4754  1  0.36932000  0.28125000  0.31818000  1
  Si  Si4755  1  0.36932000  0.28125000  0.44318000  1
  Si  Si4756  1  0.36932000  0.28125000  0.56818000  1
  Si  Si4757  1  0.36932000  0.28125000  0.69318000  1
  Si  Si4758  1  0.36932000  0.28125000  0.81818000  1
  Si  Si4759  1  0.36932000  0.28125000  0.94318000  1
  Si  Si4760  1  0.36932000  0.40625000  0.06818000  1
  Si  Si4761  1  0.36932000  0.40625000  0.19318000  1
  Si  Si4762  1  0.36932000  0.40625000  0.31818000  1
  Si  Si4763  1  0.36932000  0.40625000  0.44318000  1
  Si  Si4764  1  0.36932000  0.40625000  0.56818000  1
  Si  Si4765  1  0.36932000  0.40625000  0.69318000  1
  Si  Si4766  1  0.36932000  0.40625000  0.81818000  1
  Si  Si4767  1  0.36932000  0.40625000  0.94318000  1
  Si  Si4768  1  0.36932000  0.53125000  0.06818000  1
  Si  Si4769  1  0.36932000  0.53125000  0.19318000  1
  Si  Si4770  1  0.36932000  0.53125000  0.31818000  1
  Si  Si4771  1  0.36932000  0.53125000  0.44318000  1
  Si  Si4772  1  0.36932000  0.53125000  0.56818000  1
  Si  Si4773  1  0.36932000  0.53125000  0.69318000  1
  Si  Si4774  1  0.36932000  0.53125000  0.81818000  1
  Si  Si4775  1  0.36932000  0.53125000  0.94318000  1
  Si  Si4776  1  0.36932000  0.65625000  0.06818000  1
  Si  Si4777  1  0.36932000  0.65625000  0.19318000  1
  Si  Si4778  1  0.36932000  0.65625000  0.31818000  1
  Si  Si4779  1  0.36932000  0.65625000  0.44318000  1
  Si  Si4780  1  0.36932000  0.65625000  0.56818000  1
  Si  Si4781  1  0.36932000  0.65625000  0.69318000  1
  Si  Si4782  1  0.36932000  0.65625000  0.81818000  1
  Si  Si4783  1  0.36932000  0.65625000  0.94318000  1
  Si  Si4784  1  0.36932000  0.78125000  0.06818000  1
  Si  Si4785  1  0.36932000  0.78125000  0.19318000  1
  Si  Si4786  1  0.36932000  0.78125000  0.31818000  1
  Si  Si4787  1  0.36932000  0.78125000  0.44318000  1
  Si  Si4788  1  0.36932000  0.78125000  0.56818000  1
  Si  Si4789  1  0.36932000  0.78125000  0.69318000  1
  Si  Si4790  1  0.36932000  0.78125000  0.81818000  1
  Si  Si4791  1  0.36932000  0.78125000  0.94318000  1
  Si  Si4792  1  0.36932000  0.90625000  0.06818000  1
  Si  Si4793  1  0.36932000  0.90625000  0.19318000  1
  Si  Si4794  1  0.36932000  0.90625000  0.31818000  1
  Si  Si4795  1  0.36932000  0.90625000  0.44318000  1
  Si  Si4796  1  0.36932000  0.90625000  0.56818000  1
  Si  Si4797  1  0.36932000  0.90625000  0.69318000  1
  Si  Si4798  1  0.36932000  0.90625000  0.81818000  1
  Si  Si4799  1  0.36932000  0.90625000  0.94318000  1
  Si  Si4800  1  0.49432000  0.03125000  0.06818000  1
  Si  Si4801  1  0.49432000  0.03125000  0.19318000  1
  Si  Si4802  1  0.49432000  0.03125000  0.31818000  1
  Si  Si4803  1  0.49432000  0.03125000  0.44318000  1
  Si  Si4804  1  0.49432000  0.03125000  0.56818000  1
  Si  Si4805  1  0.49432000  0.03125000  0.69318000  1
  Si  Si4806  1  0.49432000  0.03125000  0.81818000  1
  Si  Si4807  1  0.49432000  0.03125000  0.94318000  1
  Si  Si4808  1  0.49432000  0.15625000  0.06818000  1
  Si  Si4809  1  0.49432000  0.15625000  0.19318000  1
  Si  Si4810  1  0.49432000  0.15625000  0.31818000  1
  Si  Si4811  1  0.49432000  0.15625000  0.44318000  1
  Si  Si4812  1  0.49432000  0.15625000  0.56818000  1
  Si  Si4813  1  0.49432000  0.15625000  0.69318000  1
  Si  Si4814  1  0.49432000  0.15625000  0.81818000  1
  Si  Si4815  1  0.49432000  0.15625000  0.94318000  1
  Si  Si4816  1  0.49432000  0.28125000  0.06818000  1
  Si  Si4817  1  0.49432000  0.28125000  0.19318000  1
  Si  Si4818  1  0.49432000  0.28125000  0.31818000  1
  Si  Si4819  1  0.49432000  0.28125000  0.44318000  1
  Si  Si4820  1  0.49432000  0.28125000  0.56818000  1
  Si  Si4821  1  0.49432000  0.28125000  0.69318000  1
  Si  Si4822  1  0.49432000  0.28125000  0.81818000  1
  Si  Si4823  1  0.49432000  0.28125000  0.94318000  1
  Si  Si4824  1  0.49432000  0.40625000  0.06818000  1
  Si  Si4825  1  0.49432000  0.40625000  0.19318000  1
  Si  Si4826  1  0.49432000  0.40625000  0.31818000  1
  Si  Si4827  1  0.49432000  0.40625000  0.44318000  1
  Si  Si4828  1  0.49432000  0.40625000  0.56818000  1
  Si  Si4829  1  0.49432000  0.40625000  0.69318000  1
  Si  Si4830  1  0.49432000  0.40625000  0.81818000  1
  Si  Si4831  1  0.49432000  0.40625000  0.94318000  1
  Si  Si4832  1  0.49432000  0.53125000  0.06818000  1
  Si  Si4833  1  0.49432000  0.53125000  0.19318000  1
  Si  Si4834  1  0.49432000  0.53125000  0.31818000  1
  Si  Si4835  1  0.49432000  0.53125000  0.44318000  1
  Si  Si4836  1  0.49432000  0.53125000  0.56818000  1
  Si  Si4837  1  0.49432000  0.53125000  0.69318000  1
  Si  Si4838  1  0.49432000  0.53125000  0.81818000  1
  Si  Si4839  1  0.49432000  0.53125000  0.94318000  1
  Si  Si4840  1  0.49432000  0.65625000  0.06818000  1
  Si  Si4841  1  0.49432000  0.65625000  0.19318000  1
  Si  Si4842  1  0.49432000  0.65625000  0.31818000  1
  Si  Si4843  1  0.49432000  0.65625000  0.44318000  1
  Si  Si4844  1  0.49432000  0.65625000  0.56818000  1
  Si  Si4845  1  0.49432000  0.65625000  0.69318000  1
  Si  Si4846  1  0.49432000  0.65625000  0.81818000  1
  Si  Si4847  1  0.49432000  0.65625000  0.94318000  1
  Si  Si4848  1  0.49432000  0.78125000  0.06818000  1
  Si  Si4849  1  0.49432000  0.78125000  0.19318000  1
  Si  Si4850  1  0.49432000  0.78125000  0.31818000  1
  Si  Si4851  1  0.49432000  0.78125000  0.44318000  1
  Si  Si4852  1  0.49432000  0.78125000  0.56818000  1
  Si  Si4853  1  0.49432000  0.78125000  0.69318000  1
  Si  Si4854  1  0.49432000  0.78125000  0.81818000  1
  Si  Si4855  1  0.49432000  0.78125000  0.94318000  1
  Si  Si4856  1  0.49432000  0.90625000  0.06818000  1
  Si  Si4857  1  0.49432000  0.90625000  0.19318000  1
  Si  Si4858  1  0.49432000  0.90625000  0.31818000  1
  Si  Si4859  1  0.49432000  0.90625000  0.44318000  1
  Si  Si4860  1  0.49432000  0.90625000  0.56818000  1
  Si  Si4861  1  0.49432000  0.90625000  0.69318000  1
  Si  Si4862  1  0.49432000  0.90625000  0.81818000  1
  Si  Si4863  1  0.49432000  0.90625000  0.94318000  1
  Si  Si4864  1  0.61932000  0.03125000  0.06818000  1
  Si  Si4865  1  0.61932000  0.03125000  0.19318000  1
  Si  Si4866  1  0.61932000  0.03125000  0.31818000  1
  Si  Si4867  1  0.61932000  0.03125000  0.44318000  1
  Si  Si4868  1  0.61932000  0.03125000  0.56818000  1
  Si  Si4869  1  0.61932000  0.03125000  0.69318000  1
  Si  Si4870  1  0.61932000  0.03125000  0.81818000  1
  Si  Si4871  1  0.61932000  0.03125000  0.94318000  1
  Si  Si4872  1  0.61932000  0.15625000  0.06818000  1
  Si  Si4873  1  0.61932000  0.15625000  0.19318000  1
  Si  Si4874  1  0.61932000  0.15625000  0.31818000  1
  Si  Si4875  1  0.61932000  0.15625000  0.44318000  1
  Si  Si4876  1  0.61932000  0.15625000  0.56818000  1
  Si  Si4877  1  0.61932000  0.15625000  0.69318000  1
  Si  Si4878  1  0.61932000  0.15625000  0.81818000  1
  Si  Si4879  1  0.61932000  0.15625000  0.94318000  1
  Si  Si4880  1  0.61932000  0.28125000  0.06818000  1
  Si  Si4881  1  0.61932000  0.28125000  0.19318000  1
  Si  Si4882  1  0.61932000  0.28125000  0.31818000  1
  Si  Si4883  1  0.61932000  0.28125000  0.44318000  1
  Si  Si4884  1  0.61932000  0.28125000  0.56818000  1
  Si  Si4885  1  0.61932000  0.28125000  0.69318000  1
  Si  Si4886  1  0.61932000  0.28125000  0.81818000  1
  Si  Si4887  1  0.61932000  0.28125000  0.94318000  1
  Si  Si4888  1  0.61932000  0.40625000  0.06818000  1
  Si  Si4889  1  0.61932000  0.40625000  0.19318000  1
  Si  Si4890  1  0.61932000  0.40625000  0.31818000  1
  Si  Si4891  1  0.61932000  0.40625000  0.44318000  1
  Si  Si4892  1  0.61932000  0.40625000  0.56818000  1
  Si  Si4893  1  0.61932000  0.40625000  0.69318000  1
  Si  Si4894  1  0.61932000  0.40625000  0.81818000  1
  Si  Si4895  1  0.61932000  0.40625000  0.94318000  1
  Si  Si4896  1  0.61932000  0.53125000  0.06818000  1
  Si  Si4897  1  0.61932000  0.53125000  0.19318000  1
  Si  Si4898  1  0.61932000  0.53125000  0.31818000  1
  Si  Si4899  1  0.61932000  0.53125000  0.44318000  1
  Si  Si4900  1  0.61932000  0.53125000  0.56818000  1
  Si  Si4901  1  0.61932000  0.53125000  0.69318000  1
  Si  Si4902  1  0.61932000  0.53125000  0.81818000  1
  Si  Si4903  1  0.61932000  0.53125000  0.94318000  1
  Si  Si4904  1  0.61932000  0.65625000  0.06818000  1
  Si  Si4905  1  0.61932000  0.65625000  0.19318000  1
  Si  Si4906  1  0.61932000  0.65625000  0.31818000  1
  Si  Si4907  1  0.61932000  0.65625000  0.44318000  1
  Si  Si4908  1  0.61932000  0.65625000  0.56818000  1
  Si  Si4909  1  0.61932000  0.65625000  0.69318000  1
  Si  Si4910  1  0.61932000  0.65625000  0.81818000  1
  Si  Si4911  1  0.61932000  0.65625000  0.94318000  1
  Si  Si4912  1  0.61932000  0.78125000  0.06818000  1
  Si  Si4913  1  0.61932000  0.78125000  0.19318000  1
  Si  Si4914  1  0.61932000  0.78125000  0.31818000  1
  Si  Si4915  1  0.61932000  0.78125000  0.44318000  1
  Si  Si4916  1  0.61932000  0.78125000  0.56818000  1
  Si  Si4917  1  0.61932000  0.78125000  0.69318000  1
  Si  Si4918  1  0.61932000  0.78125000  0.81818000  1
  Si  Si4919  1  0.61932000  0.78125000  0.94318000  1
  Si  Si4920  1  0.61932000  0.90625000  0.06818000  1
  Si  Si4921  1  0.61932000  0.90625000  0.19318000  1
  Si  Si4922  1  0.61932000  0.90625000  0.31818000  1
  Si  Si4923  1  0.61932000  0.90625000  0.44318000  1
  Si  Si4924  1  0.61932000  0.90625000  0.56818000  1
  Si  Si4925  1  0.61932000  0.90625000  0.69318000  1
  Si  Si4926  1  0.61932000  0.90625000  0.81818000  1
  Si  Si4927  1  0.61932000  0.90625000  0.94318000  1
  Si  Si4928  1  0.74432000  0.03125000  0.06818000  1
  Si  Si4929  1  0.74432000  0.03125000  0.19318000  1
  Si  Si4930  1  0.74432000  0.03125000  0.31818000  1
  Si  Si4931  1  0.74432000  0.03125000  0.44318000  1
  Si  Si4932  1  0.74432000  0.03125000  0.56818000  1
  Si  Si4933  1  0.74432000  0.03125000  0.69318000  1
  Si  Si4934  1  0.74432000  0.03125000  0.81818000  1
  Si  Si4935  1  0.74432000  0.03125000  0.94318000  1
  Si  Si4936  1  0.74432000  0.15625000  0.06818000  1
  Si  Si4937  1  0.74432000  0.15625000  0.19318000  1
  Si  Si4938  1  0.74432000  0.15625000  0.31818000  1
  Si  Si4939  1  0.74432000  0.15625000  0.44318000  1
  Si  Si4940  1  0.74432000  0.15625000  0.56818000  1
  Si  Si4941  1  0.74432000  0.15625000  0.69318000  1
  Si  Si4942  1  0.74432000  0.15625000  0.81818000  1
  Si  Si4943  1  0.74432000  0.15625000  0.94318000  1
  Si  Si4944  1  0.74432000  0.28125000  0.06818000  1
  Si  Si4945  1  0.74432000  0.28125000  0.19318000  1
  Si  Si4946  1  0.74432000  0.28125000  0.31818000  1
  Si  Si4947  1  0.74432000  0.28125000  0.44318000  1
  Si  Si4948  1  0.74432000  0.28125000  0.56818000  1
  Si  Si4949  1  0.74432000  0.28125000  0.69318000  1
  Si  Si4950  1  0.74432000  0.28125000  0.81818000  1
  Si  Si4951  1  0.74432000  0.28125000  0.94318000  1
  Si  Si4952  1  0.74432000  0.40625000  0.06818000  1
  Si  Si4953  1  0.74432000  0.40625000  0.19318000  1
  Si  Si4954  1  0.74432000  0.40625000  0.31818000  1
  Si  Si4955  1  0.74432000  0.40625000  0.44318000  1
  Si  Si4956  1  0.74432000  0.40625000  0.56818000  1
  Si  Si4957  1  0.74432000  0.40625000  0.69318000  1
  Si  Si4958  1  0.74432000  0.40625000  0.81818000  1
  Si  Si4959  1  0.74432000  0.40625000  0.94318000  1
  Si  Si4960  1  0.74432000  0.53125000  0.06818000  1
  Si  Si4961  1  0.74432000  0.53125000  0.19318000  1
  Si  Si4962  1  0.74432000  0.53125000  0.31818000  1
  Si  Si4963  1  0.74432000  0.53125000  0.44318000  1
  Si  Si4964  1  0.74432000  0.53125000  0.56818000  1
  Si  Si4965  1  0.74432000  0.53125000  0.69318000  1
  Si  Si4966  1  0.74432000  0.53125000  0.81818000  1
  Si  Si4967  1  0.74432000  0.53125000  0.94318000  1
  Si  Si4968  1  0.74432000  0.65625000  0.06818000  1
  Si  Si4969  1  0.74432000  0.65625000  0.19318000  1
  Si  Si4970  1  0.74432000  0.65625000  0.31818000  1
  Si  Si4971  1  0.74432000  0.65625000  0.44318000  1
  Si  Si4972  1  0.74432000  0.65625000  0.56818000  1
  Si  Si4973  1  0.74432000  0.65625000  0.69318000  1
  Si  Si4974  1  0.74432000  0.65625000  0.81818000  1
  Si  Si4975  1  0.74432000  0.65625000  0.94318000  1
  Si  Si4976  1  0.74432000  0.78125000  0.06818000  1
  Si  Si4977  1  0.74432000  0.78125000  0.19318000  1
  Si  Si4978  1  0.74432000  0.78125000  0.31818000  1
  Si  Si4979  1  0.74432000  0.78125000  0.44318000  1
  Si  Si4980  1  0.74432000  0.78125000  0.56818000  1
  Si  Si4981  1  0.74432000  0.78125000  0.69318000  1
  Si  Si4982  1  0.74432000  0.78125000  0.81818000  1
  Si  Si4983  1  0.74432000  0.78125000  0.94318000  1
  Si  Si4984  1  0.74432000  0.90625000  0.06818000  1
  Si  Si4985  1  0.74432000  0.90625000  0.19318000  1
  Si  Si4986  1  0.74432000  0.90625000  0.31818000  1
  Si  Si4987  1  0.74432000  0.90625000  0.44318000  1
  Si  Si4988  1  0.74432000  0.90625000  0.56818000  1
  Si  Si4989  1  0.74432000  0.90625000  0.69318000  1
  Si  Si4990  1  0.74432000  0.90625000  0.81818000  1
  Si  Si4991  1  0.74432000  0.90625000  0.94318000  1
  Si  Si4992  1  0.86932000  0.03125000  0.06818000  1
  Si  Si4993  1  0.86932000  0.03125000  0.19318000  1
  Si  Si4994  1  0.86932000  0.03125000  0.31818000  1
  Si  Si4995  1  0.86932000  0.03125000  0.44318000  1
  Si  Si4996  1  0.86932000  0.03125000  0.56818000  1
  Si  Si4997  1  0.86932000  0.03125000  0.69318000  1
  Si  Si4998  1  0.86932000  0.03125000  0.81818000  1
  Si  Si4999  1  0.86932000  0.03125000  0.94318000  1
  Si  Si5000  1  0.86932000  0.15625000  0.06818000  1
  Si  Si5001  1  0.86932000  0.15625000  0.19318000  1
  Si  Si5002  1  0.86932000  0.15625000  0.31818000  1
  Si  Si5003  1  0.86932000  0.15625000  0.44318000  1
  Si  Si5004  1  0.86932000  0.15625000  0.56818000  1
  Si  Si5005  1  0.86932000  0.15625000  0.69318000  1
  Si  Si5006  1  0.86932000  0.15625000  0.81818000  1
  Si  Si5007  1  0.86932000  0.15625000  0.94318000  1
  Si  Si5008  1  0.86932000  0.28125000  0.06818000  1
  Si  Si5009  1  0.86932000  0.28125000  0.19318000  1
  Si  Si5010  1  0.86932000  0.28125000  0.31818000  1
  Si  Si5011  1  0.86932000  0.28125000  0.44318000  1
  Si  Si5012  1  0.86932000  0.28125000  0.56818000  1
  Si  Si5013  1  0.86932000  0.28125000  0.69318000  1
  Si  Si5014  1  0.86932000  0.28125000  0.81818000  1
  Si  Si5015  1  0.86932000  0.28125000  0.94318000  1
  Si  Si5016  1  0.86932000  0.40625000  0.06818000  1
  Si  Si5017  1  0.86932000  0.40625000  0.19318000  1
  Si  Si5018  1  0.86932000  0.40625000  0.31818000  1
  Si  Si5019  1  0.86932000  0.40625000  0.44318000  1
  Si  Si5020  1  0.86932000  0.40625000  0.56818000  1
  Si  Si5021  1  0.86932000  0.40625000  0.69318000  1
  Si  Si5022  1  0.86932000  0.40625000  0.81818000  1
  Si  Si5023  1  0.86932000  0.40625000  0.94318000  1
  Si  Si5024  1  0.86932000  0.53125000  0.06818000  1
  Si  Si5025  1  0.86932000  0.53125000  0.19318000  1
  Si  Si5026  1  0.86932000  0.53125000  0.31818000  1
  Si  Si5027  1  0.86932000  0.53125000  0.44318000  1
  Si  Si5028  1  0.86932000  0.53125000  0.56818000  1
  Si  Si5029  1  0.86932000  0.53125000  0.69318000  1
  Si  Si5030  1  0.86932000  0.53125000  0.81818000  1
  Si  Si5031  1  0.86932000  0.53125000  0.94318000  1
  Si  Si5032  1  0.86932000  0.65625000  0.06818000  1
  Si  Si5033  1  0.86932000  0.65625000  0.19318000  1
  Si  Si5034  1  0.86932000  0.65625000  0.31818000  1
  Si  Si5035  1  0.86932000  0.65625000  0.44318000  1
  Si  Si5036  1  0.86932000  0.65625000  0.56818000  1
  Si  Si5037  1  0.86932000  0.65625000  0.69318000  1
  Si  Si5038  1  0.86932000  0.65625000  0.81818000  1
  Si  Si5039  1  0.86932000  0.65625000  0.94318000  1
  Si  Si5040  1  0.86932000  0.78125000  0.06818000  1
  Si  Si5041  1  0.86932000  0.78125000  0.19318000  1
  Si  Si5042  1  0.86932000  0.78125000  0.31818000  1
  Si  Si5043  1  0.86932000  0.78125000  0.44318000  1
  Si  Si5044  1  0.86932000  0.78125000  0.56818000  1
  Si  Si5045  1  0.86932000  0.78125000  0.69318000  1
  Si  Si5046  1  0.86932000  0.78125000  0.81818000  1
  Si  Si5047  1  0.86932000  0.78125000  0.94318000  1
  Si  Si5048  1  0.86932000  0.90625000  0.06818000  1
  Si  Si5049  1  0.86932000  0.90625000  0.19318000  1
  Si  Si5050  1  0.86932000  0.90625000  0.31818000  1
  Si  Si5051  1  0.86932000  0.90625000  0.44318000  1
  Si  Si5052  1  0.86932000  0.90625000  0.56818000  1
  Si  Si5053  1  0.86932000  0.90625000  0.69318000  1
  Si  Si5054  1  0.86932000  0.90625000  0.81818000  1
  Si  Si5055  1  0.86932000  0.90625000  0.94318000  1
  Si  Si5056  1  0.99432000  0.03125000  0.06818000  1
  Si  Si5057  1  0.99432000  0.03125000  0.19318000  1
  Si  Si5058  1  0.99432000  0.03125000  0.31818000  1
  Si  Si5059  1  0.99432000  0.03125000  0.44318000  1
  Si  Si5060  1  0.99432000  0.03125000  0.56818000  1
  Si  Si5061  1  0.99432000  0.03125000  0.69318000  1
  Si  Si5062  1  0.99432000  0.03125000  0.81818000  1
  Si  Si5063  1  0.99432000  0.03125000  0.94318000  1
  Si  Si5064  1  0.99432000  0.15625000  0.06818000  1
  Si  Si5065  1  0.99432000  0.15625000  0.19318000  1
  Si  Si5066  1  0.99432000  0.15625000  0.31818000  1
  Si  Si5067  1  0.99432000  0.15625000  0.44318000  1
  Si  Si5068  1  0.99432000  0.15625000  0.56818000  1
  Si  Si5069  1  0.99432000  0.15625000  0.69318000  1
  Si  Si5070  1  0.99432000  0.15625000  0.81818000  1
  Si  Si5071  1  0.99432000  0.15625000  0.94318000  1
  Si  Si5072  1  0.99432000  0.28125000  0.06818000  1
  Si  Si5073  1  0.99432000  0.28125000  0.19318000  1
  Si  Si5074  1  0.99432000  0.28125000  0.31818000  1
  Si  Si5075  1  0.99432000  0.28125000  0.44318000  1
  Si  Si5076  1  0.99432000  0.28125000  0.56818000  1
  Si  Si5077  1  0.99432000  0.28125000  0.69318000  1
  Si  Si5078  1  0.99432000  0.28125000  0.81818000  1
  Si  Si5079  1  0.99432000  0.28125000  0.94318000  1
  Si  Si5080  1  0.99432000  0.40625000  0.06818000  1
  Si  Si5081  1  0.99432000  0.40625000  0.19318000  1
  Si  Si5082  1  0.99432000  0.40625000  0.31818000  1
  Si  Si5083  1  0.99432000  0.40625000  0.44318000  1
  Si  Si5084  1  0.99432000  0.40625000  0.56818000  1
  Si  Si5085  1  0.99432000  0.40625000  0.69318000  1
  Si  Si5086  1  0.99432000  0.40625000  0.81818000  1
  Si  Si5087  1  0.99432000  0.40625000  0.94318000  1
  Si  Si5088  1  0.99432000  0.53125000  0.06818000  1
  Si  Si5089  1  0.99432000  0.53125000  0.19318000  1
  Si  Si5090  1  0.99432000  0.53125000  0.31818000  1
  Si  Si5091  1  0.99432000  0.53125000  0.44318000  1
  Si  Si5092  1  0.99432000  0.53125000  0.56818000  1
  Si  Si5093  1  0.99432000  0.53125000  0.69318000  1
  Si  Si5094  1  0.99432000  0.53125000  0.81818000  1
  Si  Si5095  1  0.99432000  0.53125000  0.94318000  1
  Si  Si5096  1  0.99432000  0.65625000  0.06818000  1
  Si  Si5097  1  0.99432000  0.65625000  0.19318000  1
  Si  Si5098  1  0.99432000  0.65625000  0.31818000  1
  Si  Si5099  1  0.99432000  0.65625000  0.44318000  1
  Si  Si5100  1  0.99432000  0.65625000  0.56818000  1
  Si  Si5101  1  0.99432000  0.65625000  0.69318000  1
  Si  Si5102  1  0.99432000  0.65625000  0.81818000  1
  Si  Si5103  1  0.99432000  0.65625000  0.94318000  1
  Si  Si5104  1  0.99432000  0.78125000  0.06818000  1
  Si  Si5105  1  0.99432000  0.78125000  0.19318000  1
  Si  Si5106  1  0.99432000  0.78125000  0.31818000  1
  Si  Si5107  1  0.99432000  0.78125000  0.44318000  1
  Si  Si5108  1  0.99432000  0.78125000  0.56818000  1
  Si  Si5109  1  0.99432000  0.78125000  0.69318000  1
  Si  Si5110  1  0.99432000  0.78125000  0.81818000  1
  Si  Si5111  1  0.99432000  0.78125000  0.94318000  1
  Si  Si5112  1  0.99432000  0.90625000  0.06818000  1
  Si  Si5113  1  0.99432000  0.90625000  0.19318000  1
  Si  Si5114  1  0.99432000  0.90625000  0.31818000  1
  Si  Si5115  1  0.99432000  0.90625000  0.44318000  1
  Si  Si5116  1  0.99432000  0.90625000  0.56818000  1
  Si  Si5117  1  0.99432000  0.90625000  0.69318000  1
  Si  Si5118  1  0.99432000  0.90625000  0.81818000  1
  Si  Si5119  1  0.99432000  0.90625000  0.94318000  1
  Si  Si5120  1  0.03125000  0.06818000  0.11932000  1
  Si  Si5121  1  0.03125000  0.06818000  0.24432000  1
  Si  Si5122  1  0.03125000  0.06818000  0.36932000  1
  Si  Si5123  1  0.03125000  0.06818000  0.49432000  1
  Si  Si5124  1  0.03125000  0.06818000  0.61932000  1
  Si  Si5125  1  0.03125000  0.06818000  0.74432000  1
  Si  Si5126  1  0.03125000  0.06818000  0.86932000  1
  Si  Si5127  1  0.03125000  0.06818000  0.99432000  1
  Si  Si5128  1  0.03125000  0.19318000  0.11932000  1
  Si  Si5129  1  0.03125000  0.19318000  0.24432000  1
  Si  Si5130  1  0.03125000  0.19318000  0.36932000  1
  Si  Si5131  1  0.03125000  0.19318000  0.49432000  1
  Si  Si5132  1  0.03125000  0.19318000  0.61932000  1
  Si  Si5133  1  0.03125000  0.19318000  0.74432000  1
  Si  Si5134  1  0.03125000  0.19318000  0.86932000  1
  Si  Si5135  1  0.03125000  0.19318000  0.99432000  1
  Si  Si5136  1  0.03125000  0.31818000  0.11932000  1
  Si  Si5137  1  0.03125000  0.31818000  0.24432000  1
  Si  Si5138  1  0.03125000  0.31818000  0.36932000  1
  Si  Si5139  1  0.03125000  0.31818000  0.49432000  1
  Si  Si5140  1  0.03125000  0.31818000  0.61932000  1
  Si  Si5141  1  0.03125000  0.31818000  0.74432000  1
  Si  Si5142  1  0.03125000  0.31818000  0.86932000  1
  Si  Si5143  1  0.03125000  0.31818000  0.99432000  1
  Si  Si5144  1  0.03125000  0.44318000  0.11932000  1
  Si  Si5145  1  0.03125000  0.44318000  0.24432000  1
  Si  Si5146  1  0.03125000  0.44318000  0.36932000  1
  Si  Si5147  1  0.03125000  0.44318000  0.49432000  1
  Si  Si5148  1  0.03125000  0.44318000  0.61932000  1
  Si  Si5149  1  0.03125000  0.44318000  0.74432000  1
  Si  Si5150  1  0.03125000  0.44318000  0.86932000  1
  Si  Si5151  1  0.03125000  0.44318000  0.99432000  1
  Si  Si5152  1  0.03125000  0.56818000  0.11932000  1
  Si  Si5153  1  0.03125000  0.56818000  0.24432000  1
  Si  Si5154  1  0.03125000  0.56818000  0.36932000  1
  Si  Si5155  1  0.03125000  0.56818000  0.49432000  1
  Si  Si5156  1  0.03125000  0.56818000  0.61932000  1
  Si  Si5157  1  0.03125000  0.56818000  0.74432000  1
  Si  Si5158  1  0.03125000  0.56818000  0.86932000  1
  Si  Si5159  1  0.03125000  0.56818000  0.99432000  1
  Si  Si5160  1  0.03125000  0.69318000  0.11932000  1
  Si  Si5161  1  0.03125000  0.69318000  0.24432000  1
  Si  Si5162  1  0.03125000  0.69318000  0.36932000  1
  Si  Si5163  1  0.03125000  0.69318000  0.49432000  1
  Si  Si5164  1  0.03125000  0.69318000  0.61932000  1
  Si  Si5165  1  0.03125000  0.69318000  0.74432000  1
  Si  Si5166  1  0.03125000  0.69318000  0.86932000  1
  Si  Si5167  1  0.03125000  0.69318000  0.99432000  1
  Si  Si5168  1  0.03125000  0.81818000  0.11932000  1
  Si  Si5169  1  0.03125000  0.81818000  0.24432000  1
  Si  Si5170  1  0.03125000  0.81818000  0.36932000  1
  Si  Si5171  1  0.03125000  0.81818000  0.49432000  1
  Si  Si5172  1  0.03125000  0.81818000  0.61932000  1
  Si  Si5173  1  0.03125000  0.81818000  0.74432000  1
  Si  Si5174  1  0.03125000  0.81818000  0.86932000  1
  Si  Si5175  1  0.03125000  0.81818000  0.99432000  1
  Si  Si5176  1  0.03125000  0.94318000  0.11932000  1
  Si  Si5177  1  0.03125000  0.94318000  0.24432000  1
  Si  Si5178  1  0.03125000  0.94318000  0.36932000  1
  Si  Si5179  1  0.03125000  0.94318000  0.49432000  1
  Si  Si5180  1  0.03125000  0.94318000  0.61932000  1
  Si  Si5181  1  0.03125000  0.94318000  0.74432000  1
  Si  Si5182  1  0.03125000  0.94318000  0.86932000  1
  Si  Si5183  1  0.03125000  0.94318000  0.99432000  1
  Si  Si5184  1  0.15625000  0.06818000  0.11932000  1
  Si  Si5185  1  0.15625000  0.06818000  0.24432000  1
  Si  Si5186  1  0.15625000  0.06818000  0.36932000  1
  Si  Si5187  1  0.15625000  0.06818000  0.49432000  1
  Si  Si5188  1  0.15625000  0.06818000  0.61932000  1
  Si  Si5189  1  0.15625000  0.06818000  0.74432000  1
  Si  Si5190  1  0.15625000  0.06818000  0.86932000  1
  Si  Si5191  1  0.15625000  0.06818000  0.99432000  1
  Si  Si5192  1  0.15625000  0.19318000  0.11932000  1
  Si  Si5193  1  0.15625000  0.19318000  0.24432000  1
  Si  Si5194  1  0.15625000  0.19318000  0.36932000  1
  Si  Si5195  1  0.15625000  0.19318000  0.49432000  1
  Si  Si5196  1  0.15625000  0.19318000  0.61932000  1
  Si  Si5197  1  0.15625000  0.19318000  0.74432000  1
  Si  Si5198  1  0.15625000  0.19318000  0.86932000  1
  Si  Si5199  1  0.15625000  0.19318000  0.99432000  1
  Si  Si5200  1  0.15625000  0.31818000  0.11932000  1
  Si  Si5201  1  0.15625000  0.31818000  0.24432000  1
  Si  Si5202  1  0.15625000  0.31818000  0.36932000  1
  Si  Si5203  1  0.15625000  0.31818000  0.49432000  1
  Si  Si5204  1  0.15625000  0.31818000  0.61932000  1
  Si  Si5205  1  0.15625000  0.31818000  0.74432000  1
  Si  Si5206  1  0.15625000  0.31818000  0.86932000  1
  Si  Si5207  1  0.15625000  0.31818000  0.99432000  1
  Si  Si5208  1  0.15625000  0.44318000  0.11932000  1
  Si  Si5209  1  0.15625000  0.44318000  0.24432000  1
  Si  Si5210  1  0.15625000  0.44318000  0.36932000  1
  Si  Si5211  1  0.15625000  0.44318000  0.49432000  1
  Si  Si5212  1  0.15625000  0.44318000  0.61932000  1
  Si  Si5213  1  0.15625000  0.44318000  0.74432000  1
  Si  Si5214  1  0.15625000  0.44318000  0.86932000  1
  Si  Si5215  1  0.15625000  0.44318000  0.99432000  1
  Si  Si5216  1  0.15625000  0.56818000  0.11932000  1
  Si  Si5217  1  0.15625000  0.56818000  0.24432000  1
  Si  Si5218  1  0.15625000  0.56818000  0.36932000  1
  Si  Si5219  1  0.15625000  0.56818000  0.49432000  1
  Si  Si5220  1  0.15625000  0.56818000  0.61932000  1
  Si  Si5221  1  0.15625000  0.56818000  0.74432000  1
  Si  Si5222  1  0.15625000  0.56818000  0.86932000  1
  Si  Si5223  1  0.15625000  0.56818000  0.99432000  1
  Si  Si5224  1  0.15625000  0.69318000  0.11932000  1
  Si  Si5225  1  0.15625000  0.69318000  0.24432000  1
  Si  Si5226  1  0.15625000  0.69318000  0.36932000  1
  Si  Si5227  1  0.15625000  0.69318000  0.49432000  1
  Si  Si5228  1  0.15625000  0.69318000  0.61932000  1
  Si  Si5229  1  0.15625000  0.69318000  0.74432000  1
  Si  Si5230  1  0.15625000  0.69318000  0.86932000  1
  Si  Si5231  1  0.15625000  0.69318000  0.99432000  1
  Si  Si5232  1  0.15625000  0.81818000  0.11932000  1
  Si  Si5233  1  0.15625000  0.81818000  0.24432000  1
  Si  Si5234  1  0.15625000  0.81818000  0.36932000  1
  Si  Si5235  1  0.15625000  0.81818000  0.49432000  1
  Si  Si5236  1  0.15625000  0.81818000  0.61932000  1
  Si  Si5237  1  0.15625000  0.81818000  0.74432000  1
  Si  Si5238  1  0.15625000  0.81818000  0.86932000  1
  Si  Si5239  1  0.15625000  0.81818000  0.99432000  1
  Si  Si5240  1  0.15625000  0.94318000  0.11932000  1
  Si  Si5241  1  0.15625000  0.94318000  0.24432000  1
  Si  Si5242  1  0.15625000  0.94318000  0.36932000  1
  Si  Si5243  1  0.15625000  0.94318000  0.49432000  1
  Si  Si5244  1  0.15625000  0.94318000  0.61932000  1
  Si  Si5245  1  0.15625000  0.94318000  0.74432000  1
  Si  Si5246  1  0.15625000  0.94318000  0.86932000  1
  Si  Si5247  1  0.15625000  0.94318000  0.99432000  1
  Si  Si5248  1  0.28125000  0.06818000  0.11932000  1
  Si  Si5249  1  0.28125000  0.06818000  0.24432000  1
  Si  Si5250  1  0.28125000  0.06818000  0.36932000  1
  Si  Si5251  1  0.28125000  0.06818000  0.49432000  1
  Si  Si5252  1  0.28125000  0.06818000  0.61932000  1
  Si  Si5253  1  0.28125000  0.06818000  0.74432000  1
  Si  Si5254  1  0.28125000  0.06818000  0.86932000  1
  Si  Si5255  1  0.28125000  0.06818000  0.99432000  1
  Si  Si5256  1  0.28125000  0.19318000  0.11932000  1
  Si  Si5257  1  0.28125000  0.19318000  0.24432000  1
  Si  Si5258  1  0.28125000  0.19318000  0.36932000  1
  Si  Si5259  1  0.28125000  0.19318000  0.49432000  1
  Si  Si5260  1  0.28125000  0.19318000  0.61932000  1
  Si  Si5261  1  0.28125000  0.19318000  0.74432000  1
  Si  Si5262  1  0.28125000  0.19318000  0.86932000  1
  Si  Si5263  1  0.28125000  0.19318000  0.99432000  1
  Si  Si5264  1  0.28125000  0.31818000  0.11932000  1
  Si  Si5265  1  0.28125000  0.31818000  0.24432000  1
  Si  Si5266  1  0.28125000  0.31818000  0.36932000  1
  Si  Si5267  1  0.28125000  0.31818000  0.49432000  1
  Si  Si5268  1  0.28125000  0.31818000  0.61932000  1
  Si  Si5269  1  0.28125000  0.31818000  0.74432000  1
  Si  Si5270  1  0.28125000  0.31818000  0.86932000  1
  Si  Si5271  1  0.28125000  0.31818000  0.99432000  1
  Si  Si5272  1  0.28125000  0.44318000  0.11932000  1
  Si  Si5273  1  0.28125000  0.44318000  0.24432000  1
  Si  Si5274  1  0.28125000  0.44318000  0.36932000  1
  Si  Si5275  1  0.28125000  0.44318000  0.49432000  1
  Si  Si5276  1  0.28125000  0.44318000  0.61932000  1
  Si  Si5277  1  0.28125000  0.44318000  0.74432000  1
  Si  Si5278  1  0.28125000  0.44318000  0.86932000  1
  Si  Si5279  1  0.28125000  0.44318000  0.99432000  1
  Si  Si5280  1  0.28125000  0.56818000  0.11932000  1
  Si  Si5281  1  0.28125000  0.56818000  0.24432000  1
  Si  Si5282  1  0.28125000  0.56818000  0.36932000  1
  Si  Si5283  1  0.28125000  0.56818000  0.49432000  1
  Si  Si5284  1  0.28125000  0.56818000  0.61932000  1
  Si  Si5285  1  0.28125000  0.56818000  0.74432000  1
  Si  Si5286  1  0.28125000  0.56818000  0.86932000  1
  Si  Si5287  1  0.28125000  0.56818000  0.99432000  1
  Si  Si5288  1  0.28125000  0.69318000  0.11932000  1
  Si  Si5289  1  0.28125000  0.69318000  0.24432000  1
  Si  Si5290  1  0.28125000  0.69318000  0.36932000  1
  Si  Si5291  1  0.28125000  0.69318000  0.49432000  1
  Si  Si5292  1  0.28125000  0.69318000  0.61932000  1
  Si  Si5293  1  0.28125000  0.69318000  0.74432000  1
  Si  Si5294  1  0.28125000  0.69318000  0.86932000  1
  Si  Si5295  1  0.28125000  0.69318000  0.99432000  1
  Si  Si5296  1  0.28125000  0.81818000  0.11932000  1
  Si  Si5297  1  0.28125000  0.81818000  0.24432000  1
  Si  Si5298  1  0.28125000  0.81818000  0.36932000  1
  Si  Si5299  1  0.28125000  0.81818000  0.49432000  1
  Si  Si5300  1  0.28125000  0.81818000  0.61932000  1
  Si  Si5301  1  0.28125000  0.81818000  0.74432000  1
  Si  Si5302  1  0.28125000  0.81818000  0.86932000  1
  Si  Si5303  1  0.28125000  0.81818000  0.99432000  1
  Si  Si5304  1  0.28125000  0.94318000  0.11932000  1
  Si  Si5305  1  0.28125000  0.94318000  0.24432000  1
  Si  Si5306  1  0.28125000  0.94318000  0.36932000  1
  Si  Si5307  1  0.28125000  0.94318000  0.49432000  1
  Si  Si5308  1  0.28125000  0.94318000  0.61932000  1
  Si  Si5309  1  0.28125000  0.94318000  0.74432000  1
  Si  Si5310  1  0.28125000  0.94318000  0.86932000  1
  Si  Si5311  1  0.28125000  0.94318000  0.99432000  1
  Si  Si5312  1  0.40625000  0.06818000  0.11932000  1
  Si  Si5313  1  0.40625000  0.06818000  0.24432000  1
  Si  Si5314  1  0.40625000  0.06818000  0.36932000  1
  Si  Si5315  1  0.40625000  0.06818000  0.49432000  1
  Si  Si5316  1  0.40625000  0.06818000  0.61932000  1
  Si  Si5317  1  0.40625000  0.06818000  0.74432000  1
  Si  Si5318  1  0.40625000  0.06818000  0.86932000  1
  Si  Si5319  1  0.40625000  0.06818000  0.99432000  1
  Si  Si5320  1  0.40625000  0.19318000  0.11932000  1
  Si  Si5321  1  0.40625000  0.19318000  0.24432000  1
  Si  Si5322  1  0.40625000  0.19318000  0.36932000  1
  Si  Si5323  1  0.40625000  0.19318000  0.49432000  1
  Si  Si5324  1  0.40625000  0.19318000  0.61932000  1
  Si  Si5325  1  0.40625000  0.19318000  0.74432000  1
  Si  Si5326  1  0.40625000  0.19318000  0.86932000  1
  Si  Si5327  1  0.40625000  0.19318000  0.99432000  1
  Si  Si5328  1  0.40625000  0.31818000  0.11932000  1
  Si  Si5329  1  0.40625000  0.31818000  0.24432000  1
  Si  Si5330  1  0.40625000  0.31818000  0.36932000  1
  Si  Si5331  1  0.40625000  0.31818000  0.49432000  1
  Si  Si5332  1  0.40625000  0.31818000  0.61932000  1
  Si  Si5333  1  0.40625000  0.31818000  0.74432000  1
  Si  Si5334  1  0.40625000  0.31818000  0.86932000  1
  Si  Si5335  1  0.40625000  0.31818000  0.99432000  1
  Si  Si5336  1  0.40625000  0.44318000  0.11932000  1
  Si  Si5337  1  0.40625000  0.44318000  0.24432000  1
  Si  Si5338  1  0.40625000  0.44318000  0.36932000  1
  Si  Si5339  1  0.40625000  0.44318000  0.49432000  1
  Si  Si5340  1  0.40625000  0.44318000  0.61932000  1
  Si  Si5341  1  0.40625000  0.44318000  0.74432000  1
  Si  Si5342  1  0.40625000  0.44318000  0.86932000  1
  Si  Si5343  1  0.40625000  0.44318000  0.99432000  1
  Si  Si5344  1  0.40625000  0.56818000  0.11932000  1
  Si  Si5345  1  0.40625000  0.56818000  0.24432000  1
  Si  Si5346  1  0.40625000  0.56818000  0.36932000  1
  Si  Si5347  1  0.40625000  0.56818000  0.49432000  1
  Si  Si5348  1  0.40625000  0.56818000  0.61932000  1
  Si  Si5349  1  0.40625000  0.56818000  0.74432000  1
  Si  Si5350  1  0.40625000  0.56818000  0.86932000  1
  Si  Si5351  1  0.40625000  0.56818000  0.99432000  1
  Si  Si5352  1  0.40625000  0.69318000  0.11932000  1
  Si  Si5353  1  0.40625000  0.69318000  0.24432000  1
  Si  Si5354  1  0.40625000  0.69318000  0.36932000  1
  Si  Si5355  1  0.40625000  0.69318000  0.49432000  1
  Si  Si5356  1  0.40625000  0.69318000  0.61932000  1
  Si  Si5357  1  0.40625000  0.69318000  0.74432000  1
  Si  Si5358  1  0.40625000  0.69318000  0.86932000  1
  Si  Si5359  1  0.40625000  0.69318000  0.99432000  1
  Si  Si5360  1  0.40625000  0.81818000  0.11932000  1
  Si  Si5361  1  0.40625000  0.81818000  0.24432000  1
  Si  Si5362  1  0.40625000  0.81818000  0.36932000  1
  Si  Si5363  1  0.40625000  0.81818000  0.49432000  1
  Si  Si5364  1  0.40625000  0.81818000  0.61932000  1
  Si  Si5365  1  0.40625000  0.81818000  0.74432000  1
  Si  Si5366  1  0.40625000  0.81818000  0.86932000  1
  Si  Si5367  1  0.40625000  0.81818000  0.99432000  1
  Si  Si5368  1  0.40625000  0.94318000  0.11932000  1
  Si  Si5369  1  0.40625000  0.94318000  0.24432000  1
  Si  Si5370  1  0.40625000  0.94318000  0.36932000  1
  Si  Si5371  1  0.40625000  0.94318000  0.49432000  1
  Si  Si5372  1  0.40625000  0.94318000  0.61932000  1
  Si  Si5373  1  0.40625000  0.94318000  0.74432000  1
  Si  Si5374  1  0.40625000  0.94318000  0.86932000  1
  Si  Si5375  1  0.40625000  0.94318000  0.99432000  1
  Si  Si5376  1  0.53125000  0.06818000  0.11932000  1
  Si  Si5377  1  0.53125000  0.06818000  0.24432000  1
  Si  Si5378  1  0.53125000  0.06818000  0.36932000  1
  Si  Si5379  1  0.53125000  0.06818000  0.49432000  1
  Si  Si5380  1  0.53125000  0.06818000  0.61932000  1
  Si  Si5381  1  0.53125000  0.06818000  0.74432000  1
  Si  Si5382  1  0.53125000  0.06818000  0.86932000  1
  Si  Si5383  1  0.53125000  0.06818000  0.99432000  1
  Si  Si5384  1  0.53125000  0.19318000  0.11932000  1
  Si  Si5385  1  0.53125000  0.19318000  0.24432000  1
  Si  Si5386  1  0.53125000  0.19318000  0.36932000  1
  Si  Si5387  1  0.53125000  0.19318000  0.49432000  1
  Si  Si5388  1  0.53125000  0.19318000  0.61932000  1
  Si  Si5389  1  0.53125000  0.19318000  0.74432000  1
  Si  Si5390  1  0.53125000  0.19318000  0.86932000  1
  Si  Si5391  1  0.53125000  0.19318000  0.99432000  1
  Si  Si5392  1  0.53125000  0.31818000  0.11932000  1
  Si  Si5393  1  0.53125000  0.31818000  0.24432000  1
  Si  Si5394  1  0.53125000  0.31818000  0.36932000  1
  Si  Si5395  1  0.53125000  0.31818000  0.49432000  1
  Si  Si5396  1  0.53125000  0.31818000  0.61932000  1
  Si  Si5397  1  0.53125000  0.31818000  0.74432000  1
  Si  Si5398  1  0.53125000  0.31818000  0.86932000  1
  Si  Si5399  1  0.53125000  0.31818000  0.99432000  1
  Si  Si5400  1  0.53125000  0.44318000  0.11932000  1
  Si  Si5401  1  0.53125000  0.44318000  0.24432000  1
  Si  Si5402  1  0.53125000  0.44318000  0.36932000  1
  Si  Si5403  1  0.53125000  0.44318000  0.49432000  1
  Si  Si5404  1  0.53125000  0.44318000  0.61932000  1
  Si  Si5405  1  0.53125000  0.44318000  0.74432000  1
  Si  Si5406  1  0.53125000  0.44318000  0.86932000  1
  Si  Si5407  1  0.53125000  0.44318000  0.99432000  1
  Si  Si5408  1  0.53125000  0.56818000  0.11932000  1
  Si  Si5409  1  0.53125000  0.56818000  0.24432000  1
  Si  Si5410  1  0.53125000  0.56818000  0.36932000  1
  Si  Si5411  1  0.53125000  0.56818000  0.49432000  1
  Si  Si5412  1  0.53125000  0.56818000  0.61932000  1
  Si  Si5413  1  0.53125000  0.56818000  0.74432000  1
  Si  Si5414  1  0.53125000  0.56818000  0.86932000  1
  Si  Si5415  1  0.53125000  0.56818000  0.99432000  1
  Si  Si5416  1  0.53125000  0.69318000  0.11932000  1
  Si  Si5417  1  0.53125000  0.69318000  0.24432000  1
  Si  Si5418  1  0.53125000  0.69318000  0.36932000  1
  Si  Si5419  1  0.53125000  0.69318000  0.49432000  1
  Si  Si5420  1  0.53125000  0.69318000  0.61932000  1
  Si  Si5421  1  0.53125000  0.69318000  0.74432000  1
  Si  Si5422  1  0.53125000  0.69318000  0.86932000  1
  Si  Si5423  1  0.53125000  0.69318000  0.99432000  1
  Si  Si5424  1  0.53125000  0.81818000  0.11932000  1
  Si  Si5425  1  0.53125000  0.81818000  0.24432000  1
  Si  Si5426  1  0.53125000  0.81818000  0.36932000  1
  Si  Si5427  1  0.53125000  0.81818000  0.49432000  1
  Si  Si5428  1  0.53125000  0.81818000  0.61932000  1
  Si  Si5429  1  0.53125000  0.81818000  0.74432000  1
  Si  Si5430  1  0.53125000  0.81818000  0.86932000  1
  Si  Si5431  1  0.53125000  0.81818000  0.99432000  1
  Si  Si5432  1  0.53125000  0.94318000  0.11932000  1
  Si  Si5433  1  0.53125000  0.94318000  0.24432000  1
  Si  Si5434  1  0.53125000  0.94318000  0.36932000  1
  Si  Si5435  1  0.53125000  0.94318000  0.49432000  1
  Si  Si5436  1  0.53125000  0.94318000  0.61932000  1
  Si  Si5437  1  0.53125000  0.94318000  0.74432000  1
  Si  Si5438  1  0.53125000  0.94318000  0.86932000  1
  Si  Si5439  1  0.53125000  0.94318000  0.99432000  1
  Si  Si5440  1  0.65625000  0.06818000  0.11932000  1
  Si  Si5441  1  0.65625000  0.06818000  0.24432000  1
  Si  Si5442  1  0.65625000  0.06818000  0.36932000  1
  Si  Si5443  1  0.65625000  0.06818000  0.49432000  1
  Si  Si5444  1  0.65625000  0.06818000  0.61932000  1
  Si  Si5445  1  0.65625000  0.06818000  0.74432000  1
  Si  Si5446  1  0.65625000  0.06818000  0.86932000  1
  Si  Si5447  1  0.65625000  0.06818000  0.99432000  1
  Si  Si5448  1  0.65625000  0.19318000  0.11932000  1
  Si  Si5449  1  0.65625000  0.19318000  0.24432000  1
  Si  Si5450  1  0.65625000  0.19318000  0.36932000  1
  Si  Si5451  1  0.65625000  0.19318000  0.49432000  1
  Si  Si5452  1  0.65625000  0.19318000  0.61932000  1
  Si  Si5453  1  0.65625000  0.19318000  0.74432000  1
  Si  Si5454  1  0.65625000  0.19318000  0.86932000  1
  Si  Si5455  1  0.65625000  0.19318000  0.99432000  1
  Si  Si5456  1  0.65625000  0.31818000  0.11932000  1
  Si  Si5457  1  0.65625000  0.31818000  0.24432000  1
  Si  Si5458  1  0.65625000  0.31818000  0.36932000  1
  Si  Si5459  1  0.65625000  0.31818000  0.49432000  1
  Si  Si5460  1  0.65625000  0.31818000  0.61932000  1
  Si  Si5461  1  0.65625000  0.31818000  0.74432000  1
  Si  Si5462  1  0.65625000  0.31818000  0.86932000  1
  Si  Si5463  1  0.65625000  0.31818000  0.99432000  1
  Si  Si5464  1  0.65625000  0.44318000  0.11932000  1
  Si  Si5465  1  0.65625000  0.44318000  0.24432000  1
  Si  Si5466  1  0.65625000  0.44318000  0.36932000  1
  Si  Si5467  1  0.65625000  0.44318000  0.49432000  1
  Si  Si5468  1  0.65625000  0.44318000  0.61932000  1
  Si  Si5469  1  0.65625000  0.44318000  0.74432000  1
  Si  Si5470  1  0.65625000  0.44318000  0.86932000  1
  Si  Si5471  1  0.65625000  0.44318000  0.99432000  1
  Si  Si5472  1  0.65625000  0.56818000  0.11932000  1
  Si  Si5473  1  0.65625000  0.56818000  0.24432000  1
  Si  Si5474  1  0.65625000  0.56818000  0.36932000  1
  Si  Si5475  1  0.65625000  0.56818000  0.49432000  1
  Si  Si5476  1  0.65625000  0.56818000  0.61932000  1
  Si  Si5477  1  0.65625000  0.56818000  0.74432000  1
  Si  Si5478  1  0.65625000  0.56818000  0.86932000  1
  Si  Si5479  1  0.65625000  0.56818000  0.99432000  1
  Si  Si5480  1  0.65625000  0.69318000  0.11932000  1
  Si  Si5481  1  0.65625000  0.69318000  0.24432000  1
  Si  Si5482  1  0.65625000  0.69318000  0.36932000  1
  Si  Si5483  1  0.65625000  0.69318000  0.49432000  1
  Si  Si5484  1  0.65625000  0.69318000  0.61932000  1
  Si  Si5485  1  0.65625000  0.69318000  0.74432000  1
  Si  Si5486  1  0.65625000  0.69318000  0.86932000  1
  Si  Si5487  1  0.65625000  0.69318000  0.99432000  1
  Si  Si5488  1  0.65625000  0.81818000  0.11932000  1
  Si  Si5489  1  0.65625000  0.81818000  0.24432000  1
  Si  Si5490  1  0.65625000  0.81818000  0.36932000  1
  Si  Si5491  1  0.65625000  0.81818000  0.49432000  1
  Si  Si5492  1  0.65625000  0.81818000  0.61932000  1
  Si  Si5493  1  0.65625000  0.81818000  0.74432000  1
  Si  Si5494  1  0.65625000  0.81818000  0.86932000  1
  Si  Si5495  1  0.65625000  0.81818000  0.99432000  1
  Si  Si5496  1  0.65625000  0.94318000  0.11932000  1
  Si  Si5497  1  0.65625000  0.94318000  0.24432000  1
  Si  Si5498  1  0.65625000  0.94318000  0.36932000  1
  Si  Si5499  1  0.65625000  0.94318000  0.49432000  1
  Si  Si5500  1  0.65625000  0.94318000  0.61932000  1
  Si  Si5501  1  0.65625000  0.94318000  0.74432000  1
  Si  Si5502  1  0.65625000  0.94318000  0.86932000  1
  Si  Si5503  1  0.65625000  0.94318000  0.99432000  1
  Si  Si5504  1  0.78125000  0.06818000  0.11932000  1
  Si  Si5505  1  0.78125000  0.06818000  0.24432000  1
  Si  Si5506  1  0.78125000  0.06818000  0.36932000  1
  Si  Si5507  1  0.78125000  0.06818000  0.49432000  1
  Si  Si5508  1  0.78125000  0.06818000  0.61932000  1
  Si  Si5509  1  0.78125000  0.06818000  0.74432000  1
  Si  Si5510  1  0.78125000  0.06818000  0.86932000  1
  Si  Si5511  1  0.78125000  0.06818000  0.99432000  1
  Si  Si5512  1  0.78125000  0.19318000  0.11932000  1
  Si  Si5513  1  0.78125000  0.19318000  0.24432000  1
  Si  Si5514  1  0.78125000  0.19318000  0.36932000  1
  Si  Si5515  1  0.78125000  0.19318000  0.49432000  1
  Si  Si5516  1  0.78125000  0.19318000  0.61932000  1
  Si  Si5517  1  0.78125000  0.19318000  0.74432000  1
  Si  Si5518  1  0.78125000  0.19318000  0.86932000  1
  Si  Si5519  1  0.78125000  0.19318000  0.99432000  1
  Si  Si5520  1  0.78125000  0.31818000  0.11932000  1
  Si  Si5521  1  0.78125000  0.31818000  0.24432000  1
  Si  Si5522  1  0.78125000  0.31818000  0.36932000  1
  Si  Si5523  1  0.78125000  0.31818000  0.49432000  1
  Si  Si5524  1  0.78125000  0.31818000  0.61932000  1
  Si  Si5525  1  0.78125000  0.31818000  0.74432000  1
  Si  Si5526  1  0.78125000  0.31818000  0.86932000  1
  Si  Si5527  1  0.78125000  0.31818000  0.99432000  1
  Si  Si5528  1  0.78125000  0.44318000  0.11932000  1
  Si  Si5529  1  0.78125000  0.44318000  0.24432000  1
  Si  Si5530  1  0.78125000  0.44318000  0.36932000  1
  Si  Si5531  1  0.78125000  0.44318000  0.49432000  1
  Si  Si5532  1  0.78125000  0.44318000  0.61932000  1
  Si  Si5533  1  0.78125000  0.44318000  0.74432000  1
  Si  Si5534  1  0.78125000  0.44318000  0.86932000  1
  Si  Si5535  1  0.78125000  0.44318000  0.99432000  1
  Si  Si5536  1  0.78125000  0.56818000  0.11932000  1
  Si  Si5537  1  0.78125000  0.56818000  0.24432000  1
  Si  Si5538  1  0.78125000  0.56818000  0.36932000  1
  Si  Si5539  1  0.78125000  0.56818000  0.49432000  1
  Si  Si5540  1  0.78125000  0.56818000  0.61932000  1
  Si  Si5541  1  0.78125000  0.56818000  0.74432000  1
  Si  Si5542  1  0.78125000  0.56818000  0.86932000  1
  Si  Si5543  1  0.78125000  0.56818000  0.99432000  1
  Si  Si5544  1  0.78125000  0.69318000  0.11932000  1
  Si  Si5545  1  0.78125000  0.69318000  0.24432000  1
  Si  Si5546  1  0.78125000  0.69318000  0.36932000  1
  Si  Si5547  1  0.78125000  0.69318000  0.49432000  1
  Si  Si5548  1  0.78125000  0.69318000  0.61932000  1
  Si  Si5549  1  0.78125000  0.69318000  0.74432000  1
  Si  Si5550  1  0.78125000  0.69318000  0.86932000  1
  Si  Si5551  1  0.78125000  0.69318000  0.99432000  1
  Si  Si5552  1  0.78125000  0.81818000  0.11932000  1
  Si  Si5553  1  0.78125000  0.81818000  0.24432000  1
  Si  Si5554  1  0.78125000  0.81818000  0.36932000  1
  Si  Si5555  1  0.78125000  0.81818000  0.49432000  1
  Si  Si5556  1  0.78125000  0.81818000  0.61932000  1
  Si  Si5557  1  0.78125000  0.81818000  0.74432000  1
  Si  Si5558  1  0.78125000  0.81818000  0.86932000  1
  Si  Si5559  1  0.78125000  0.81818000  0.99432000  1
  Si  Si5560  1  0.78125000  0.94318000  0.11932000  1
  Si  Si5561  1  0.78125000  0.94318000  0.24432000  1
  Si  Si5562  1  0.78125000  0.94318000  0.36932000  1
  Si  Si5563  1  0.78125000  0.94318000  0.49432000  1
  Si  Si5564  1  0.78125000  0.94318000  0.61932000  1
  Si  Si5565  1  0.78125000  0.94318000  0.74432000  1
  Si  Si5566  1  0.78125000  0.94318000  0.86932000  1
  Si  Si5567  1  0.78125000  0.94318000  0.99432000  1
  Si  Si5568  1  0.90625000  0.06818000  0.11932000  1
  Si  Si5569  1  0.90625000  0.06818000  0.24432000  1
  Si  Si5570  1  0.90625000  0.06818000  0.36932000  1
  Si  Si5571  1  0.90625000  0.06818000  0.49432000  1
  Si  Si5572  1  0.90625000  0.06818000  0.61932000  1
  Si  Si5573  1  0.90625000  0.06818000  0.74432000  1
  Si  Si5574  1  0.90625000  0.06818000  0.86932000  1
  Si  Si5575  1  0.90625000  0.06818000  0.99432000  1
  Si  Si5576  1  0.90625000  0.19318000  0.11932000  1
  Si  Si5577  1  0.90625000  0.19318000  0.24432000  1
  Si  Si5578  1  0.90625000  0.19318000  0.36932000  1
  Si  Si5579  1  0.90625000  0.19318000  0.49432000  1
  Si  Si5580  1  0.90625000  0.19318000  0.61932000  1
  Si  Si5581  1  0.90625000  0.19318000  0.74432000  1
  Si  Si5582  1  0.90625000  0.19318000  0.86932000  1
  Si  Si5583  1  0.90625000  0.19318000  0.99432000  1
  Si  Si5584  1  0.90625000  0.31818000  0.11932000  1
  Si  Si5585  1  0.90625000  0.31818000  0.24432000  1
  Si  Si5586  1  0.90625000  0.31818000  0.36932000  1
  Si  Si5587  1  0.90625000  0.31818000  0.49432000  1
  Si  Si5588  1  0.90625000  0.31818000  0.61932000  1
  Si  Si5589  1  0.90625000  0.31818000  0.74432000  1
  Si  Si5590  1  0.90625000  0.31818000  0.86932000  1
  Si  Si5591  1  0.90625000  0.31818000  0.99432000  1
  Si  Si5592  1  0.90625000  0.44318000  0.11932000  1
  Si  Si5593  1  0.90625000  0.44318000  0.24432000  1
  Si  Si5594  1  0.90625000  0.44318000  0.36932000  1
  Si  Si5595  1  0.90625000  0.44318000  0.49432000  1
  Si  Si5596  1  0.90625000  0.44318000  0.61932000  1
  Si  Si5597  1  0.90625000  0.44318000  0.74432000  1
  Si  Si5598  1  0.90625000  0.44318000  0.86932000  1
  Si  Si5599  1  0.90625000  0.44318000  0.99432000  1
  Si  Si5600  1  0.90625000  0.56818000  0.11932000  1
  Si  Si5601  1  0.90625000  0.56818000  0.24432000  1
  Si  Si5602  1  0.90625000  0.56818000  0.36932000  1
  Si  Si5603  1  0.90625000  0.56818000  0.49432000  1
  Si  Si5604  1  0.90625000  0.56818000  0.61932000  1
  Si  Si5605  1  0.90625000  0.56818000  0.74432000  1
  Si  Si5606  1  0.90625000  0.56818000  0.86932000  1
  Si  Si5607  1  0.90625000  0.56818000  0.99432000  1
  Si  Si5608  1  0.90625000  0.69318000  0.11932000  1
  Si  Si5609  1  0.90625000  0.69318000  0.24432000  1
  Si  Si5610  1  0.90625000  0.69318000  0.36932000  1
  Si  Si5611  1  0.90625000  0.69318000  0.49432000  1
  Si  Si5612  1  0.90625000  0.69318000  0.61932000  1
  Si  Si5613  1  0.90625000  0.69318000  0.74432000  1
  Si  Si5614  1  0.90625000  0.69318000  0.86932000  1
  Si  Si5615  1  0.90625000  0.69318000  0.99432000  1
  Si  Si5616  1  0.90625000  0.81818000  0.11932000  1
  Si  Si5617  1  0.90625000  0.81818000  0.24432000  1
  Si  Si5618  1  0.90625000  0.81818000  0.36932000  1
  Si  Si5619  1  0.90625000  0.81818000  0.49432000  1
  Si  Si5620  1  0.90625000  0.81818000  0.61932000  1
  Si  Si5621  1  0.90625000  0.81818000  0.74432000  1
  Si  Si5622  1  0.90625000  0.81818000  0.86932000  1
  Si  Si5623  1  0.90625000  0.81818000  0.99432000  1
  Si  Si5624  1  0.90625000  0.94318000  0.11932000  1
  Si  Si5625  1  0.90625000  0.94318000  0.24432000  1
  Si  Si5626  1  0.90625000  0.94318000  0.36932000  1
  Si  Si5627  1  0.90625000  0.94318000  0.49432000  1
  Si  Si5628  1  0.90625000  0.94318000  0.61932000  1
  Si  Si5629  1  0.90625000  0.94318000  0.74432000  1
  Si  Si5630  1  0.90625000  0.94318000  0.86932000  1
  Si  Si5631  1  0.90625000  0.94318000  0.99432000  1
  Si  Si5632  1  0.00568000  0.09375000  0.05682000  1
  Si  Si5633  1  0.00568000  0.09375000  0.18182000  1
  Si  Si5634  1  0.00568000  0.09375000  0.30682000  1
  Si  Si5635  1  0.00568000  0.09375000  0.43182000  1
  Si  Si5636  1  0.00568000  0.09375000  0.55682000  1
  Si  Si5637  1  0.00568000  0.09375000  0.68182000  1
  Si  Si5638  1  0.00568000  0.09375000  0.80682000  1
  Si  Si5639  1  0.00568000  0.09375000  0.93182000  1
  Si  Si5640  1  0.00568000  0.21875000  0.05682000  1
  Si  Si5641  1  0.00568000  0.21875000  0.18182000  1
  Si  Si5642  1  0.00568000  0.21875000  0.30682000  1
  Si  Si5643  1  0.00568000  0.21875000  0.43182000  1
  Si  Si5644  1  0.00568000  0.21875000  0.55682000  1
  Si  Si5645  1  0.00568000  0.21875000  0.68182000  1
  Si  Si5646  1  0.00568000  0.21875000  0.80682000  1
  Si  Si5647  1  0.00568000  0.21875000  0.93182000  1
  Si  Si5648  1  0.00568000  0.34375000  0.05682000  1
  Si  Si5649  1  0.00568000  0.34375000  0.18182000  1
  Si  Si5650  1  0.00568000  0.34375000  0.30682000  1
  Si  Si5651  1  0.00568000  0.34375000  0.43182000  1
  Si  Si5652  1  0.00568000  0.34375000  0.55682000  1
  Si  Si5653  1  0.00568000  0.34375000  0.68182000  1
  Si  Si5654  1  0.00568000  0.34375000  0.80682000  1
  Si  Si5655  1  0.00568000  0.34375000  0.93182000  1
  Si  Si5656  1  0.00568000  0.46875000  0.05682000  1
  Si  Si5657  1  0.00568000  0.46875000  0.18182000  1
  Si  Si5658  1  0.00568000  0.46875000  0.30682000  1
  Si  Si5659  1  0.00568000  0.46875000  0.43182000  1
  Si  Si5660  1  0.00568000  0.46875000  0.55682000  1
  Si  Si5661  1  0.00568000  0.46875000  0.68182000  1
  Si  Si5662  1  0.00568000  0.46875000  0.80682000  1
  Si  Si5663  1  0.00568000  0.46875000  0.93182000  1
  Si  Si5664  1  0.00568000  0.59375000  0.05682000  1
  Si  Si5665  1  0.00568000  0.59375000  0.18182000  1
  Si  Si5666  1  0.00568000  0.59375000  0.30682000  1
  Si  Si5667  1  0.00568000  0.59375000  0.43182000  1
  Si  Si5668  1  0.00568000  0.59375000  0.55682000  1
  Si  Si5669  1  0.00568000  0.59375000  0.68182000  1
  Si  Si5670  1  0.00568000  0.59375000  0.80682000  1
  Si  Si5671  1  0.00568000  0.59375000  0.93182000  1
  Si  Si5672  1  0.00568000  0.71875000  0.05682000  1
  Si  Si5673  1  0.00568000  0.71875000  0.18182000  1
  Si  Si5674  1  0.00568000  0.71875000  0.30682000  1
  Si  Si5675  1  0.00568000  0.71875000  0.43182000  1
  Si  Si5676  1  0.00568000  0.71875000  0.55682000  1
  Si  Si5677  1  0.00568000  0.71875000  0.68182000  1
  Si  Si5678  1  0.00568000  0.71875000  0.80682000  1
  Si  Si5679  1  0.00568000  0.71875000  0.93182000  1
  Si  Si5680  1  0.00568000  0.84375000  0.05682000  1
  Si  Si5681  1  0.00568000  0.84375000  0.18182000  1
  Si  Si5682  1  0.00568000  0.84375000  0.30682000  1
  Si  Si5683  1  0.00568000  0.84375000  0.43182000  1
  Si  Si5684  1  0.00568000  0.84375000  0.55682000  1
  Si  Si5685  1  0.00568000  0.84375000  0.68182000  1
  Si  Si5686  1  0.00568000  0.84375000  0.80682000  1
  Si  Si5687  1  0.00568000  0.84375000  0.93182000  1
  Si  Si5688  1  0.00568000  0.96875000  0.05682000  1
  Si  Si5689  1  0.00568000  0.96875000  0.18182000  1
  Si  Si5690  1  0.00568000  0.96875000  0.30682000  1
  Si  Si5691  1  0.00568000  0.96875000  0.43182000  1
  Si  Si5692  1  0.00568000  0.96875000  0.55682000  1
  Si  Si5693  1  0.00568000  0.96875000  0.68182000  1
  Si  Si5694  1  0.00568000  0.96875000  0.80682000  1
  Si  Si5695  1  0.00568000  0.96875000  0.93182000  1
  Si  Si5696  1  0.13068000  0.09375000  0.05682000  1
  Si  Si5697  1  0.13068000  0.09375000  0.18182000  1
  Si  Si5698  1  0.13068000  0.09375000  0.30682000  1
  Si  Si5699  1  0.13068000  0.09375000  0.43182000  1
  Si  Si5700  1  0.13068000  0.09375000  0.55682000  1
  Si  Si5701  1  0.13068000  0.09375000  0.68182000  1
  Si  Si5702  1  0.13068000  0.09375000  0.80682000  1
  Si  Si5703  1  0.13068000  0.09375000  0.93182000  1
  Si  Si5704  1  0.13068000  0.21875000  0.05682000  1
  Si  Si5705  1  0.13068000  0.21875000  0.18182000  1
  Si  Si5706  1  0.13068000  0.21875000  0.30682000  1
  Si  Si5707  1  0.13068000  0.21875000  0.43182000  1
  Si  Si5708  1  0.13068000  0.21875000  0.55682000  1
  Si  Si5709  1  0.13068000  0.21875000  0.68182000  1
  Si  Si5710  1  0.13068000  0.21875000  0.80682000  1
  Si  Si5711  1  0.13068000  0.21875000  0.93182000  1
  Si  Si5712  1  0.13068000  0.34375000  0.05682000  1
  Si  Si5713  1  0.13068000  0.34375000  0.18182000  1
  Si  Si5714  1  0.13068000  0.34375000  0.30682000  1
  Si  Si5715  1  0.13068000  0.34375000  0.43182000  1
  Si  Si5716  1  0.13068000  0.34375000  0.55682000  1
  Si  Si5717  1  0.13068000  0.34375000  0.68182000  1
  Si  Si5718  1  0.13068000  0.34375000  0.80682000  1
  Si  Si5719  1  0.13068000  0.34375000  0.93182000  1
  Si  Si5720  1  0.13068000  0.46875000  0.05682000  1
  Si  Si5721  1  0.13068000  0.46875000  0.18182000  1
  Si  Si5722  1  0.13068000  0.46875000  0.30682000  1
  Si  Si5723  1  0.13068000  0.46875000  0.43182000  1
  Si  Si5724  1  0.13068000  0.46875000  0.55682000  1
  Si  Si5725  1  0.13068000  0.46875000  0.68182000  1
  Si  Si5726  1  0.13068000  0.46875000  0.80682000  1
  Si  Si5727  1  0.13068000  0.46875000  0.93182000  1
  Si  Si5728  1  0.13068000  0.59375000  0.05682000  1
  Si  Si5729  1  0.13068000  0.59375000  0.18182000  1
  Si  Si5730  1  0.13068000  0.59375000  0.30682000  1
  Si  Si5731  1  0.13068000  0.59375000  0.43182000  1
  Si  Si5732  1  0.13068000  0.59375000  0.55682000  1
  Si  Si5733  1  0.13068000  0.59375000  0.68182000  1
  Si  Si5734  1  0.13068000  0.59375000  0.80682000  1
  Si  Si5735  1  0.13068000  0.59375000  0.93182000  1
  Si  Si5736  1  0.13068000  0.71875000  0.05682000  1
  Si  Si5737  1  0.13068000  0.71875000  0.18182000  1
  Si  Si5738  1  0.13068000  0.71875000  0.30682000  1
  Si  Si5739  1  0.13068000  0.71875000  0.43182000  1
  Si  Si5740  1  0.13068000  0.71875000  0.55682000  1
  Si  Si5741  1  0.13068000  0.71875000  0.68182000  1
  Si  Si5742  1  0.13068000  0.71875000  0.80682000  1
  Si  Si5743  1  0.13068000  0.71875000  0.93182000  1
  Si  Si5744  1  0.13068000  0.84375000  0.05682000  1
  Si  Si5745  1  0.13068000  0.84375000  0.18182000  1
  Si  Si5746  1  0.13068000  0.84375000  0.30682000  1
  Si  Si5747  1  0.13068000  0.84375000  0.43182000  1
  Si  Si5748  1  0.13068000  0.84375000  0.55682000  1
  Si  Si5749  1  0.13068000  0.84375000  0.68182000  1
  Si  Si5750  1  0.13068000  0.84375000  0.80682000  1
  Si  Si5751  1  0.13068000  0.84375000  0.93182000  1
  Si  Si5752  1  0.13068000  0.96875000  0.05682000  1
  Si  Si5753  1  0.13068000  0.96875000  0.18182000  1
  Si  Si5754  1  0.13068000  0.96875000  0.30682000  1
  Si  Si5755  1  0.13068000  0.96875000  0.43182000  1
  Si  Si5756  1  0.13068000  0.96875000  0.55682000  1
  Si  Si5757  1  0.13068000  0.96875000  0.68182000  1
  Si  Si5758  1  0.13068000  0.96875000  0.80682000  1
  Si  Si5759  1  0.13068000  0.96875000  0.93182000  1
  Si  Si5760  1  0.25568000  0.09375000  0.05682000  1
  Si  Si5761  1  0.25568000  0.09375000  0.18182000  1
  Si  Si5762  1  0.25568000  0.09375000  0.30682000  1
  Si  Si5763  1  0.25568000  0.09375000  0.43182000  1
  Si  Si5764  1  0.25568000  0.09375000  0.55682000  1
  Si  Si5765  1  0.25568000  0.09375000  0.68182000  1
  Si  Si5766  1  0.25568000  0.09375000  0.80682000  1
  Si  Si5767  1  0.25568000  0.09375000  0.93182000  1
  Si  Si5768  1  0.25568000  0.21875000  0.05682000  1
  Si  Si5769  1  0.25568000  0.21875000  0.18182000  1
  Si  Si5770  1  0.25568000  0.21875000  0.30682000  1
  Si  Si5771  1  0.25568000  0.21875000  0.43182000  1
  Si  Si5772  1  0.25568000  0.21875000  0.55682000  1
  Si  Si5773  1  0.25568000  0.21875000  0.68182000  1
  Si  Si5774  1  0.25568000  0.21875000  0.80682000  1
  Si  Si5775  1  0.25568000  0.21875000  0.93182000  1
  Si  Si5776  1  0.25568000  0.34375000  0.05682000  1
  Si  Si5777  1  0.25568000  0.34375000  0.18182000  1
  Si  Si5778  1  0.25568000  0.34375000  0.30682000  1
  Si  Si5779  1  0.25568000  0.34375000  0.43182000  1
  Si  Si5780  1  0.25568000  0.34375000  0.55682000  1
  Si  Si5781  1  0.25568000  0.34375000  0.68182000  1
  Si  Si5782  1  0.25568000  0.34375000  0.80682000  1
  Si  Si5783  1  0.25568000  0.34375000  0.93182000  1
  Si  Si5784  1  0.25568000  0.46875000  0.05682000  1
  Si  Si5785  1  0.25568000  0.46875000  0.18182000  1
  Si  Si5786  1  0.25568000  0.46875000  0.30682000  1
  Si  Si5787  1  0.25568000  0.46875000  0.43182000  1
  Si  Si5788  1  0.25568000  0.46875000  0.55682000  1
  Si  Si5789  1  0.25568000  0.46875000  0.68182000  1
  Si  Si5790  1  0.25568000  0.46875000  0.80682000  1
  Si  Si5791  1  0.25568000  0.46875000  0.93182000  1
  Si  Si5792  1  0.25568000  0.59375000  0.05682000  1
  Si  Si5793  1  0.25568000  0.59375000  0.18182000  1
  Si  Si5794  1  0.25568000  0.59375000  0.30682000  1
  Si  Si5795  1  0.25568000  0.59375000  0.43182000  1
  Si  Si5796  1  0.25568000  0.59375000  0.55682000  1
  Si  Si5797  1  0.25568000  0.59375000  0.68182000  1
  Si  Si5798  1  0.25568000  0.59375000  0.80682000  1
  Si  Si5799  1  0.25568000  0.59375000  0.93182000  1
  Si  Si5800  1  0.25568000  0.71875000  0.05682000  1
  Si  Si5801  1  0.25568000  0.71875000  0.18182000  1
  Si  Si5802  1  0.25568000  0.71875000  0.30682000  1
  Si  Si5803  1  0.25568000  0.71875000  0.43182000  1
  Si  Si5804  1  0.25568000  0.71875000  0.55682000  1
  Si  Si5805  1  0.25568000  0.71875000  0.68182000  1
  Si  Si5806  1  0.25568000  0.71875000  0.80682000  1
  Si  Si5807  1  0.25568000  0.71875000  0.93182000  1
  Si  Si5808  1  0.25568000  0.84375000  0.05682000  1
  Si  Si5809  1  0.25568000  0.84375000  0.18182000  1
  Si  Si5810  1  0.25568000  0.84375000  0.30682000  1
  Si  Si5811  1  0.25568000  0.84375000  0.43182000  1
  Si  Si5812  1  0.25568000  0.84375000  0.55682000  1
  Si  Si5813  1  0.25568000  0.84375000  0.68182000  1
  Si  Si5814  1  0.25568000  0.84375000  0.80682000  1
  Si  Si5815  1  0.25568000  0.84375000  0.93182000  1
  Si  Si5816  1  0.25568000  0.96875000  0.05682000  1
  Si  Si5817  1  0.25568000  0.96875000  0.18182000  1
  Si  Si5818  1  0.25568000  0.96875000  0.30682000  1
  Si  Si5819  1  0.25568000  0.96875000  0.43182000  1
  Si  Si5820  1  0.25568000  0.96875000  0.55682000  1
  Si  Si5821  1  0.25568000  0.96875000  0.68182000  1
  Si  Si5822  1  0.25568000  0.96875000  0.80682000  1
  Si  Si5823  1  0.25568000  0.96875000  0.93182000  1
  Si  Si5824  1  0.38068000  0.09375000  0.05682000  1
  Si  Si5825  1  0.38068000  0.09375000  0.18182000  1
  Si  Si5826  1  0.38068000  0.09375000  0.30682000  1
  Si  Si5827  1  0.38068000  0.09375000  0.43182000  1
  Si  Si5828  1  0.38068000  0.09375000  0.55682000  1
  Si  Si5829  1  0.38068000  0.09375000  0.68182000  1
  Si  Si5830  1  0.38068000  0.09375000  0.80682000  1
  Si  Si5831  1  0.38068000  0.09375000  0.93182000  1
  Si  Si5832  1  0.38068000  0.21875000  0.05682000  1
  Si  Si5833  1  0.38068000  0.21875000  0.18182000  1
  Si  Si5834  1  0.38068000  0.21875000  0.30682000  1
  Si  Si5835  1  0.38068000  0.21875000  0.43182000  1
  Si  Si5836  1  0.38068000  0.21875000  0.55682000  1
  Si  Si5837  1  0.38068000  0.21875000  0.68182000  1
  Si  Si5838  1  0.38068000  0.21875000  0.80682000  1
  Si  Si5839  1  0.38068000  0.21875000  0.93182000  1
  Si  Si5840  1  0.38068000  0.34375000  0.05682000  1
  Si  Si5841  1  0.38068000  0.34375000  0.18182000  1
  Si  Si5842  1  0.38068000  0.34375000  0.30682000  1
  Si  Si5843  1  0.38068000  0.34375000  0.43182000  1
  Si  Si5844  1  0.38068000  0.34375000  0.55682000  1
  Si  Si5845  1  0.38068000  0.34375000  0.68182000  1
  Si  Si5846  1  0.38068000  0.34375000  0.80682000  1
  Si  Si5847  1  0.38068000  0.34375000  0.93182000  1
  Si  Si5848  1  0.38068000  0.46875000  0.05682000  1
  Si  Si5849  1  0.38068000  0.46875000  0.18182000  1
  Si  Si5850  1  0.38068000  0.46875000  0.30682000  1
  Si  Si5851  1  0.38068000  0.46875000  0.43182000  1
  Si  Si5852  1  0.38068000  0.46875000  0.55682000  1
  Si  Si5853  1  0.38068000  0.46875000  0.68182000  1
  Si  Si5854  1  0.38068000  0.46875000  0.80682000  1
  Si  Si5855  1  0.38068000  0.46875000  0.93182000  1
  Si  Si5856  1  0.38068000  0.59375000  0.05682000  1
  Si  Si5857  1  0.38068000  0.59375000  0.18182000  1
  Si  Si5858  1  0.38068000  0.59375000  0.30682000  1
  Si  Si5859  1  0.38068000  0.59375000  0.43182000  1
  Si  Si5860  1  0.38068000  0.59375000  0.55682000  1
  Si  Si5861  1  0.38068000  0.59375000  0.68182000  1
  Si  Si5862  1  0.38068000  0.59375000  0.80682000  1
  Si  Si5863  1  0.38068000  0.59375000  0.93182000  1
  Si  Si5864  1  0.38068000  0.71875000  0.05682000  1
  Si  Si5865  1  0.38068000  0.71875000  0.18182000  1
  Si  Si5866  1  0.38068000  0.71875000  0.30682000  1
  Si  Si5867  1  0.38068000  0.71875000  0.43182000  1
  Si  Si5868  1  0.38068000  0.71875000  0.55682000  1
  Si  Si5869  1  0.38068000  0.71875000  0.68182000  1
  Si  Si5870  1  0.38068000  0.71875000  0.80682000  1
  Si  Si5871  1  0.38068000  0.71875000  0.93182000  1
  Si  Si5872  1  0.38068000  0.84375000  0.05682000  1
  Si  Si5873  1  0.38068000  0.84375000  0.18182000  1
  Si  Si5874  1  0.38068000  0.84375000  0.30682000  1
  Si  Si5875  1  0.38068000  0.84375000  0.43182000  1
  Si  Si5876  1  0.38068000  0.84375000  0.55682000  1
  Si  Si5877  1  0.38068000  0.84375000  0.68182000  1
  Si  Si5878  1  0.38068000  0.84375000  0.80682000  1
  Si  Si5879  1  0.38068000  0.84375000  0.93182000  1
  Si  Si5880  1  0.38068000  0.96875000  0.05682000  1
  Si  Si5881  1  0.38068000  0.96875000  0.18182000  1
  Si  Si5882  1  0.38068000  0.96875000  0.30682000  1
  Si  Si5883  1  0.38068000  0.96875000  0.43182000  1
  Si  Si5884  1  0.38068000  0.96875000  0.55682000  1
  Si  Si5885  1  0.38068000  0.96875000  0.68182000  1
  Si  Si5886  1  0.38068000  0.96875000  0.80682000  1
  Si  Si5887  1  0.38068000  0.96875000  0.93182000  1
  Si  Si5888  1  0.50568000  0.09375000  0.05682000  1
  Si  Si5889  1  0.50568000  0.09375000  0.18182000  1
  Si  Si5890  1  0.50568000  0.09375000  0.30682000  1
  Si  Si5891  1  0.50568000  0.09375000  0.43182000  1
  Si  Si5892  1  0.50568000  0.09375000  0.55682000  1
  Si  Si5893  1  0.50568000  0.09375000  0.68182000  1
  Si  Si5894  1  0.50568000  0.09375000  0.80682000  1
  Si  Si5895  1  0.50568000  0.09375000  0.93182000  1
  Si  Si5896  1  0.50568000  0.21875000  0.05682000  1
  Si  Si5897  1  0.50568000  0.21875000  0.18182000  1
  Si  Si5898  1  0.50568000  0.21875000  0.30682000  1
  Si  Si5899  1  0.50568000  0.21875000  0.43182000  1
  Si  Si5900  1  0.50568000  0.21875000  0.55682000  1
  Si  Si5901  1  0.50568000  0.21875000  0.68182000  1
  Si  Si5902  1  0.50568000  0.21875000  0.80682000  1
  Si  Si5903  1  0.50568000  0.21875000  0.93182000  1
  Si  Si5904  1  0.50568000  0.34375000  0.05682000  1
  Si  Si5905  1  0.50568000  0.34375000  0.18182000  1
  Si  Si5906  1  0.50568000  0.34375000  0.30682000  1
  Si  Si5907  1  0.50568000  0.34375000  0.43182000  1
  Si  Si5908  1  0.50568000  0.34375000  0.55682000  1
  Si  Si5909  1  0.50568000  0.34375000  0.68182000  1
  Si  Si5910  1  0.50568000  0.34375000  0.80682000  1
  Si  Si5911  1  0.50568000  0.34375000  0.93182000  1
  Si  Si5912  1  0.50568000  0.46875000  0.05682000  1
  Si  Si5913  1  0.50568000  0.46875000  0.18182000  1
  Si  Si5914  1  0.50568000  0.46875000  0.30682000  1
  Si  Si5915  1  0.50568000  0.46875000  0.43182000  1
  Si  Si5916  1  0.50568000  0.46875000  0.55682000  1
  Si  Si5917  1  0.50568000  0.46875000  0.68182000  1
  Si  Si5918  1  0.50568000  0.46875000  0.80682000  1
  Si  Si5919  1  0.50568000  0.46875000  0.93182000  1
  Si  Si5920  1  0.50568000  0.59375000  0.05682000  1
  Si  Si5921  1  0.50568000  0.59375000  0.18182000  1
  Si  Si5922  1  0.50568000  0.59375000  0.30682000  1
  Si  Si5923  1  0.50568000  0.59375000  0.43182000  1
  Si  Si5924  1  0.50568000  0.59375000  0.55682000  1
  Si  Si5925  1  0.50568000  0.59375000  0.68182000  1
  Si  Si5926  1  0.50568000  0.59375000  0.80682000  1
  Si  Si5927  1  0.50568000  0.59375000  0.93182000  1
  Si  Si5928  1  0.50568000  0.71875000  0.05682000  1
  Si  Si5929  1  0.50568000  0.71875000  0.18182000  1
  Si  Si5930  1  0.50568000  0.71875000  0.30682000  1
  Si  Si5931  1  0.50568000  0.71875000  0.43182000  1
  Si  Si5932  1  0.50568000  0.71875000  0.55682000  1
  Si  Si5933  1  0.50568000  0.71875000  0.68182000  1
  Si  Si5934  1  0.50568000  0.71875000  0.80682000  1
  Si  Si5935  1  0.50568000  0.71875000  0.93182000  1
  Si  Si5936  1  0.50568000  0.84375000  0.05682000  1
  Si  Si5937  1  0.50568000  0.84375000  0.18182000  1
  Si  Si5938  1  0.50568000  0.84375000  0.30682000  1
  Si  Si5939  1  0.50568000  0.84375000  0.43182000  1
  Si  Si5940  1  0.50568000  0.84375000  0.55682000  1
  Si  Si5941  1  0.50568000  0.84375000  0.68182000  1
  Si  Si5942  1  0.50568000  0.84375000  0.80682000  1
  Si  Si5943  1  0.50568000  0.84375000  0.93182000  1
  Si  Si5944  1  0.50568000  0.96875000  0.05682000  1
  Si  Si5945  1  0.50568000  0.96875000  0.18182000  1
  Si  Si5946  1  0.50568000  0.96875000  0.30682000  1
  Si  Si5947  1  0.50568000  0.96875000  0.43182000  1
  Si  Si5948  1  0.50568000  0.96875000  0.55682000  1
  Si  Si5949  1  0.50568000  0.96875000  0.68182000  1
  Si  Si5950  1  0.50568000  0.96875000  0.80682000  1
  Si  Si5951  1  0.50568000  0.96875000  0.93182000  1
  Si  Si5952  1  0.63068000  0.09375000  0.05682000  1
  Si  Si5953  1  0.63068000  0.09375000  0.18182000  1
  Si  Si5954  1  0.63068000  0.09375000  0.30682000  1
  Si  Si5955  1  0.63068000  0.09375000  0.43182000  1
  Si  Si5956  1  0.63068000  0.09375000  0.55682000  1
  Si  Si5957  1  0.63068000  0.09375000  0.68182000  1
  Si  Si5958  1  0.63068000  0.09375000  0.80682000  1
  Si  Si5959  1  0.63068000  0.09375000  0.93182000  1
  Si  Si5960  1  0.63068000  0.21875000  0.05682000  1
  Si  Si5961  1  0.63068000  0.21875000  0.18182000  1
  Si  Si5962  1  0.63068000  0.21875000  0.30682000  1
  Si  Si5963  1  0.63068000  0.21875000  0.43182000  1
  Si  Si5964  1  0.63068000  0.21875000  0.55682000  1
  Si  Si5965  1  0.63068000  0.21875000  0.68182000  1
  Si  Si5966  1  0.63068000  0.21875000  0.80682000  1
  Si  Si5967  1  0.63068000  0.21875000  0.93182000  1
  Si  Si5968  1  0.63068000  0.34375000  0.05682000  1
  Si  Si5969  1  0.63068000  0.34375000  0.18182000  1
  Si  Si5970  1  0.63068000  0.34375000  0.30682000  1
  Si  Si5971  1  0.63068000  0.34375000  0.43182000  1
  Si  Si5972  1  0.63068000  0.34375000  0.55682000  1
  Si  Si5973  1  0.63068000  0.34375000  0.68182000  1
  Si  Si5974  1  0.63068000  0.34375000  0.80682000  1
  Si  Si5975  1  0.63068000  0.34375000  0.93182000  1
  Si  Si5976  1  0.63068000  0.46875000  0.05682000  1
  Si  Si5977  1  0.63068000  0.46875000  0.18182000  1
  Si  Si5978  1  0.63068000  0.46875000  0.30682000  1
  Si  Si5979  1  0.63068000  0.46875000  0.43182000  1
  Si  Si5980  1  0.63068000  0.46875000  0.55682000  1
  Si  Si5981  1  0.63068000  0.46875000  0.68182000  1
  Si  Si5982  1  0.63068000  0.46875000  0.80682000  1
  Si  Si5983  1  0.63068000  0.46875000  0.93182000  1
  Si  Si5984  1  0.63068000  0.59375000  0.05682000  1
  Si  Si5985  1  0.63068000  0.59375000  0.18182000  1
  Si  Si5986  1  0.63068000  0.59375000  0.30682000  1
  Si  Si5987  1  0.63068000  0.59375000  0.43182000  1
  Si  Si5988  1  0.63068000  0.59375000  0.55682000  1
  Si  Si5989  1  0.63068000  0.59375000  0.68182000  1
  Si  Si5990  1  0.63068000  0.59375000  0.80682000  1
  Si  Si5991  1  0.63068000  0.59375000  0.93182000  1
  Si  Si5992  1  0.63068000  0.71875000  0.05682000  1
  Si  Si5993  1  0.63068000  0.71875000  0.18182000  1
  Si  Si5994  1  0.63068000  0.71875000  0.30682000  1
  Si  Si5995  1  0.63068000  0.71875000  0.43182000  1
  Si  Si5996  1  0.63068000  0.71875000  0.55682000  1
  Si  Si5997  1  0.63068000  0.71875000  0.68182000  1
  Si  Si5998  1  0.63068000  0.71875000  0.80682000  1
  Si  Si5999  1  0.63068000  0.71875000  0.93182000  1
  Si  Si6000  1  0.63068000  0.84375000  0.05682000  1
  Si  Si6001  1  0.63068000  0.84375000  0.18182000  1
  Si  Si6002  1  0.63068000  0.84375000  0.30682000  1
  Si  Si6003  1  0.63068000  0.84375000  0.43182000  1
  Si  Si6004  1  0.63068000  0.84375000  0.55682000  1
  Si  Si6005  1  0.63068000  0.84375000  0.68182000  1
  Si  Si6006  1  0.63068000  0.84375000  0.80682000  1
  Si  Si6007  1  0.63068000  0.84375000  0.93182000  1
  Si  Si6008  1  0.63068000  0.96875000  0.05682000  1
  Si  Si6009  1  0.63068000  0.96875000  0.18182000  1
  Si  Si6010  1  0.63068000  0.96875000  0.30682000  1
  Si  Si6011  1  0.63068000  0.96875000  0.43182000  1
  Si  Si6012  1  0.63068000  0.96875000  0.55682000  1
  Si  Si6013  1  0.63068000  0.96875000  0.68182000  1
  Si  Si6014  1  0.63068000  0.96875000  0.80682000  1
  Si  Si6015  1  0.63068000  0.96875000  0.93182000  1
  Si  Si6016  1  0.75568000  0.09375000  0.05682000  1
  Si  Si6017  1  0.75568000  0.09375000  0.18182000  1
  Si  Si6018  1  0.75568000  0.09375000  0.30682000  1
  Si  Si6019  1  0.75568000  0.09375000  0.43182000  1
  Si  Si6020  1  0.75568000  0.09375000  0.55682000  1
  Si  Si6021  1  0.75568000  0.09375000  0.68182000  1
  Si  Si6022  1  0.75568000  0.09375000  0.80682000  1
  Si  Si6023  1  0.75568000  0.09375000  0.93182000  1
  Si  Si6024  1  0.75568000  0.21875000  0.05682000  1
  Si  Si6025  1  0.75568000  0.21875000  0.18182000  1
  Si  Si6026  1  0.75568000  0.21875000  0.30682000  1
  Si  Si6027  1  0.75568000  0.21875000  0.43182000  1
  Si  Si6028  1  0.75568000  0.21875000  0.55682000  1
  Si  Si6029  1  0.75568000  0.21875000  0.68182000  1
  Si  Si6030  1  0.75568000  0.21875000  0.80682000  1
  Si  Si6031  1  0.75568000  0.21875000  0.93182000  1
  Si  Si6032  1  0.75568000  0.34375000  0.05682000  1
  Si  Si6033  1  0.75568000  0.34375000  0.18182000  1
  Si  Si6034  1  0.75568000  0.34375000  0.30682000  1
  Si  Si6035  1  0.75568000  0.34375000  0.43182000  1
  Si  Si6036  1  0.75568000  0.34375000  0.55682000  1
  Si  Si6037  1  0.75568000  0.34375000  0.68182000  1
  Si  Si6038  1  0.75568000  0.34375000  0.80682000  1
  Si  Si6039  1  0.75568000  0.34375000  0.93182000  1
  Si  Si6040  1  0.75568000  0.46875000  0.05682000  1
  Si  Si6041  1  0.75568000  0.46875000  0.18182000  1
  Si  Si6042  1  0.75568000  0.46875000  0.30682000  1
  Si  Si6043  1  0.75568000  0.46875000  0.43182000  1
  Si  Si6044  1  0.75568000  0.46875000  0.55682000  1
  Si  Si6045  1  0.75568000  0.46875000  0.68182000  1
  Si  Si6046  1  0.75568000  0.46875000  0.80682000  1
  Si  Si6047  1  0.75568000  0.46875000  0.93182000  1
  Si  Si6048  1  0.75568000  0.59375000  0.05682000  1
  Si  Si6049  1  0.75568000  0.59375000  0.18182000  1
  Si  Si6050  1  0.75568000  0.59375000  0.30682000  1
  Si  Si6051  1  0.75568000  0.59375000  0.43182000  1
  Si  Si6052  1  0.75568000  0.59375000  0.55682000  1
  Si  Si6053  1  0.75568000  0.59375000  0.68182000  1
  Si  Si6054  1  0.75568000  0.59375000  0.80682000  1
  Si  Si6055  1  0.75568000  0.59375000  0.93182000  1
  Si  Si6056  1  0.75568000  0.71875000  0.05682000  1
  Si  Si6057  1  0.75568000  0.71875000  0.18182000  1
  Si  Si6058  1  0.75568000  0.71875000  0.30682000  1
  Si  Si6059  1  0.75568000  0.71875000  0.43182000  1
  Si  Si6060  1  0.75568000  0.71875000  0.55682000  1
  Si  Si6061  1  0.75568000  0.71875000  0.68182000  1
  Si  Si6062  1  0.75568000  0.71875000  0.80682000  1
  Si  Si6063  1  0.75568000  0.71875000  0.93182000  1
  Si  Si6064  1  0.75568000  0.84375000  0.05682000  1
  Si  Si6065  1  0.75568000  0.84375000  0.18182000  1
  Si  Si6066  1  0.75568000  0.84375000  0.30682000  1
  Si  Si6067  1  0.75568000  0.84375000  0.43182000  1
  Si  Si6068  1  0.75568000  0.84375000  0.55682000  1
  Si  Si6069  1  0.75568000  0.84375000  0.68182000  1
  Si  Si6070  1  0.75568000  0.84375000  0.80682000  1
  Si  Si6071  1  0.75568000  0.84375000  0.93182000  1
  Si  Si6072  1  0.75568000  0.96875000  0.05682000  1
  Si  Si6073  1  0.75568000  0.96875000  0.18182000  1
  Si  Si6074  1  0.75568000  0.96875000  0.30682000  1
  Si  Si6075  1  0.75568000  0.96875000  0.43182000  1
  Si  Si6076  1  0.75568000  0.96875000  0.55682000  1
  Si  Si6077  1  0.75568000  0.96875000  0.68182000  1
  Si  Si6078  1  0.75568000  0.96875000  0.80682000  1
  Si  Si6079  1  0.75568000  0.96875000  0.93182000  1
  Si  Si6080  1  0.88068000  0.09375000  0.05682000  1
  Si  Si6081  1  0.88068000  0.09375000  0.18182000  1
  Si  Si6082  1  0.88068000  0.09375000  0.30682000  1
  Si  Si6083  1  0.88068000  0.09375000  0.43182000  1
  Si  Si6084  1  0.88068000  0.09375000  0.55682000  1
  Si  Si6085  1  0.88068000  0.09375000  0.68182000  1
  Si  Si6086  1  0.88068000  0.09375000  0.80682000  1
  Si  Si6087  1  0.88068000  0.09375000  0.93182000  1
  Si  Si6088  1  0.88068000  0.21875000  0.05682000  1
  Si  Si6089  1  0.88068000  0.21875000  0.18182000  1
  Si  Si6090  1  0.88068000  0.21875000  0.30682000  1
  Si  Si6091  1  0.88068000  0.21875000  0.43182000  1
  Si  Si6092  1  0.88068000  0.21875000  0.55682000  1
  Si  Si6093  1  0.88068000  0.21875000  0.68182000  1
  Si  Si6094  1  0.88068000  0.21875000  0.80682000  1
  Si  Si6095  1  0.88068000  0.21875000  0.93182000  1
  Si  Si6096  1  0.88068000  0.34375000  0.05682000  1
  Si  Si6097  1  0.88068000  0.34375000  0.18182000  1
  Si  Si6098  1  0.88068000  0.34375000  0.30682000  1
  Si  Si6099  1  0.88068000  0.34375000  0.43182000  1
  Si  Si6100  1  0.88068000  0.34375000  0.55682000  1
  Si  Si6101  1  0.88068000  0.34375000  0.68182000  1
  Si  Si6102  1  0.88068000  0.34375000  0.80682000  1
  Si  Si6103  1  0.88068000  0.34375000  0.93182000  1
  Si  Si6104  1  0.88068000  0.46875000  0.05682000  1
  Si  Si6105  1  0.88068000  0.46875000  0.18182000  1
  Si  Si6106  1  0.88068000  0.46875000  0.30682000  1
  Si  Si6107  1  0.88068000  0.46875000  0.43182000  1
  Si  Si6108  1  0.88068000  0.46875000  0.55682000  1
  Si  Si6109  1  0.88068000  0.46875000  0.68182000  1
  Si  Si6110  1  0.88068000  0.46875000  0.80682000  1
  Si  Si6111  1  0.88068000  0.46875000  0.93182000  1
  Si  Si6112  1  0.88068000  0.59375000  0.05682000  1
  Si  Si6113  1  0.88068000  0.59375000  0.18182000  1
  Si  Si6114  1  0.88068000  0.59375000  0.30682000  1
  Si  Si6115  1  0.88068000  0.59375000  0.43182000  1
  Si  Si6116  1  0.88068000  0.59375000  0.55682000  1
  Si  Si6117  1  0.88068000  0.59375000  0.68182000  1
  Si  Si6118  1  0.88068000  0.59375000  0.80682000  1
  Si  Si6119  1  0.88068000  0.59375000  0.93182000  1
  Si  Si6120  1  0.88068000  0.71875000  0.05682000  1
  Si  Si6121  1  0.88068000  0.71875000  0.18182000  1
  Si  Si6122  1  0.88068000  0.71875000  0.30682000  1
  Si  Si6123  1  0.88068000  0.71875000  0.43182000  1
  Si  Si6124  1  0.88068000  0.71875000  0.55682000  1
  Si  Si6125  1  0.88068000  0.71875000  0.68182000  1
  Si  Si6126  1  0.88068000  0.71875000  0.80682000  1
  Si  Si6127  1  0.88068000  0.71875000  0.93182000  1
  Si  Si6128  1  0.88068000  0.84375000  0.05682000  1
  Si  Si6129  1  0.88068000  0.84375000  0.18182000  1
  Si  Si6130  1  0.88068000  0.84375000  0.30682000  1
  Si  Si6131  1  0.88068000  0.84375000  0.43182000  1
  Si  Si6132  1  0.88068000  0.84375000  0.55682000  1
  Si  Si6133  1  0.88068000  0.84375000  0.68182000  1
  Si  Si6134  1  0.88068000  0.84375000  0.80682000  1
  Si  Si6135  1  0.88068000  0.84375000  0.93182000  1
  Si  Si6136  1  0.88068000  0.96875000  0.05682000  1
  Si  Si6137  1  0.88068000  0.96875000  0.18182000  1
  Si  Si6138  1  0.88068000  0.96875000  0.30682000  1
  Si  Si6139  1  0.88068000  0.96875000  0.43182000  1
  Si  Si6140  1  0.88068000  0.96875000  0.55682000  1
  Si  Si6141  1  0.88068000  0.96875000  0.68182000  1
  Si  Si6142  1  0.88068000  0.96875000  0.80682000  1
  Si  Si6143  1  0.88068000  0.96875000  0.93182000  1
  Si  Si6144  1  0.09375000  0.05682000  0.00568000  1
  Si  Si6145  1  0.09375000  0.05682000  0.13068000  1
  Si  Si6146  1  0.09375000  0.05682000  0.25568000  1
  Si  Si6147  1  0.09375000  0.05682000  0.38068000  1
  Si  Si6148  1  0.09375000  0.05682000  0.50568000  1
  Si  Si6149  1  0.09375000  0.05682000  0.63068000  1
  Si  Si6150  1  0.09375000  0.05682000  0.75568000  1
  Si  Si6151  1  0.09375000  0.05682000  0.88068000  1
  Si  Si6152  1  0.09375000  0.18182000  0.00568000  1
  Si  Si6153  1  0.09375000  0.18182000  0.13068000  1
  Si  Si6154  1  0.09375000  0.18182000  0.25568000  1
  Si  Si6155  1  0.09375000  0.18182000  0.38068000  1
  Si  Si6156  1  0.09375000  0.18182000  0.50568000  1
  Si  Si6157  1  0.09375000  0.18182000  0.63068000  1
  Si  Si6158  1  0.09375000  0.18182000  0.75568000  1
  Si  Si6159  1  0.09375000  0.18182000  0.88068000  1
  Si  Si6160  1  0.09375000  0.30682000  0.00568000  1
  Si  Si6161  1  0.09375000  0.30682000  0.13068000  1
  Si  Si6162  1  0.09375000  0.30682000  0.25568000  1
  Si  Si6163  1  0.09375000  0.30682000  0.38068000  1
  Si  Si6164  1  0.09375000  0.30682000  0.50568000  1
  Si  Si6165  1  0.09375000  0.30682000  0.63068000  1
  Si  Si6166  1  0.09375000  0.30682000  0.75568000  1
  Si  Si6167  1  0.09375000  0.30682000  0.88068000  1
  Si  Si6168  1  0.09375000  0.43182000  0.00568000  1
  Si  Si6169  1  0.09375000  0.43182000  0.13068000  1
  Si  Si6170  1  0.09375000  0.43182000  0.25568000  1
  Si  Si6171  1  0.09375000  0.43182000  0.38068000  1
  Si  Si6172  1  0.09375000  0.43182000  0.50568000  1
  Si  Si6173  1  0.09375000  0.43182000  0.63068000  1
  Si  Si6174  1  0.09375000  0.43182000  0.75568000  1
  Si  Si6175  1  0.09375000  0.43182000  0.88068000  1
  Si  Si6176  1  0.09375000  0.55682000  0.00568000  1
  Si  Si6177  1  0.09375000  0.55682000  0.13068000  1
  Si  Si6178  1  0.09375000  0.55682000  0.25568000  1
  Si  Si6179  1  0.09375000  0.55682000  0.38068000  1
  Si  Si6180  1  0.09375000  0.55682000  0.50568000  1
  Si  Si6181  1  0.09375000  0.55682000  0.63068000  1
  Si  Si6182  1  0.09375000  0.55682000  0.75568000  1
  Si  Si6183  1  0.09375000  0.55682000  0.88068000  1
  Si  Si6184  1  0.09375000  0.68182000  0.00568000  1
  Si  Si6185  1  0.09375000  0.68182000  0.13068000  1
  Si  Si6186  1  0.09375000  0.68182000  0.25568000  1
  Si  Si6187  1  0.09375000  0.68182000  0.38068000  1
  Si  Si6188  1  0.09375000  0.68182000  0.50568000  1
  Si  Si6189  1  0.09375000  0.68182000  0.63068000  1
  Si  Si6190  1  0.09375000  0.68182000  0.75568000  1
  Si  Si6191  1  0.09375000  0.68182000  0.88068000  1
  Si  Si6192  1  0.09375000  0.80682000  0.00568000  1
  Si  Si6193  1  0.09375000  0.80682000  0.13068000  1
  Si  Si6194  1  0.09375000  0.80682000  0.25568000  1
  Si  Si6195  1  0.09375000  0.80682000  0.38068000  1
  Si  Si6196  1  0.09375000  0.80682000  0.50568000  1
  Si  Si6197  1  0.09375000  0.80682000  0.63068000  1
  Si  Si6198  1  0.09375000  0.80682000  0.75568000  1
  Si  Si6199  1  0.09375000  0.80682000  0.88068000  1
  Si  Si6200  1  0.09375000  0.93182000  0.00568000  1
  Si  Si6201  1  0.09375000  0.93182000  0.13068000  1
  Si  Si6202  1  0.09375000  0.93182000  0.25568000  1
  Si  Si6203  1  0.09375000  0.93182000  0.38068000  1
  Si  Si6204  1  0.09375000  0.93182000  0.50568000  1
  Si  Si6205  1  0.09375000  0.93182000  0.63068000  1
  Si  Si6206  1  0.09375000  0.93182000  0.75568000  1
  Si  Si6207  1  0.09375000  0.93182000  0.88068000  1
  Si  Si6208  1  0.21875000  0.05682000  0.00568000  1
  Si  Si6209  1  0.21875000  0.05682000  0.13068000  1
  Si  Si6210  1  0.21875000  0.05682000  0.25568000  1
  Si  Si6211  1  0.21875000  0.05682000  0.38068000  1
  Si  Si6212  1  0.21875000  0.05682000  0.50568000  1
  Si  Si6213  1  0.21875000  0.05682000  0.63068000  1
  Si  Si6214  1  0.21875000  0.05682000  0.75568000  1
  Si  Si6215  1  0.21875000  0.05682000  0.88068000  1
  Si  Si6216  1  0.21875000  0.18182000  0.00568000  1
  Si  Si6217  1  0.21875000  0.18182000  0.13068000  1
  Si  Si6218  1  0.21875000  0.18182000  0.25568000  1
  Si  Si6219  1  0.21875000  0.18182000  0.38068000  1
  Si  Si6220  1  0.21875000  0.18182000  0.50568000  1
  Si  Si6221  1  0.21875000  0.18182000  0.63068000  1
  Si  Si6222  1  0.21875000  0.18182000  0.75568000  1
  Si  Si6223  1  0.21875000  0.18182000  0.88068000  1
  Si  Si6224  1  0.21875000  0.30682000  0.00568000  1
  Si  Si6225  1  0.21875000  0.30682000  0.13068000  1
  Si  Si6226  1  0.21875000  0.30682000  0.25568000  1
  Si  Si6227  1  0.21875000  0.30682000  0.38068000  1
  Si  Si6228  1  0.21875000  0.30682000  0.50568000  1
  Si  Si6229  1  0.21875000  0.30682000  0.63068000  1
  Si  Si6230  1  0.21875000  0.30682000  0.75568000  1
  Si  Si6231  1  0.21875000  0.30682000  0.88068000  1
  Si  Si6232  1  0.21875000  0.43182000  0.00568000  1
  Si  Si6233  1  0.21875000  0.43182000  0.13068000  1
  Si  Si6234  1  0.21875000  0.43182000  0.25568000  1
  Si  Si6235  1  0.21875000  0.43182000  0.38068000  1
  Si  Si6236  1  0.21875000  0.43182000  0.50568000  1
  Si  Si6237  1  0.21875000  0.43182000  0.63068000  1
  Si  Si6238  1  0.21875000  0.43182000  0.75568000  1
  Si  Si6239  1  0.21875000  0.43182000  0.88068000  1
  Si  Si6240  1  0.21875000  0.55682000  0.00568000  1
  Si  Si6241  1  0.21875000  0.55682000  0.13068000  1
  Si  Si6242  1  0.21875000  0.55682000  0.25568000  1
  Si  Si6243  1  0.21875000  0.55682000  0.38068000  1
  Si  Si6244  1  0.21875000  0.55682000  0.50568000  1
  Si  Si6245  1  0.21875000  0.55682000  0.63068000  1
  Si  Si6246  1  0.21875000  0.55682000  0.75568000  1
  Si  Si6247  1  0.21875000  0.55682000  0.88068000  1
  Si  Si6248  1  0.21875000  0.68182000  0.00568000  1
  Si  Si6249  1  0.21875000  0.68182000  0.13068000  1
  Si  Si6250  1  0.21875000  0.68182000  0.25568000  1
  Si  Si6251  1  0.21875000  0.68182000  0.38068000  1
  Si  Si6252  1  0.21875000  0.68182000  0.50568000  1
  Si  Si6253  1  0.21875000  0.68182000  0.63068000  1
  Si  Si6254  1  0.21875000  0.68182000  0.75568000  1
  Si  Si6255  1  0.21875000  0.68182000  0.88068000  1
  Si  Si6256  1  0.21875000  0.80682000  0.00568000  1
  Si  Si6257  1  0.21875000  0.80682000  0.13068000  1
  Si  Si6258  1  0.21875000  0.80682000  0.25568000  1
  Si  Si6259  1  0.21875000  0.80682000  0.38068000  1
  Si  Si6260  1  0.21875000  0.80682000  0.50568000  1
  Si  Si6261  1  0.21875000  0.80682000  0.63068000  1
  Si  Si6262  1  0.21875000  0.80682000  0.75568000  1
  Si  Si6263  1  0.21875000  0.80682000  0.88068000  1
  Si  Si6264  1  0.21875000  0.93182000  0.00568000  1
  Si  Si6265  1  0.21875000  0.93182000  0.13068000  1
  Si  Si6266  1  0.21875000  0.93182000  0.25568000  1
  Si  Si6267  1  0.21875000  0.93182000  0.38068000  1
  Si  Si6268  1  0.21875000  0.93182000  0.50568000  1
  Si  Si6269  1  0.21875000  0.93182000  0.63068000  1
  Si  Si6270  1  0.21875000  0.93182000  0.75568000  1
  Si  Si6271  1  0.21875000  0.93182000  0.88068000  1
  Si  Si6272  1  0.34375000  0.05682000  0.00568000  1
  Si  Si6273  1  0.34375000  0.05682000  0.13068000  1
  Si  Si6274  1  0.34375000  0.05682000  0.25568000  1
  Si  Si6275  1  0.34375000  0.05682000  0.38068000  1
  Si  Si6276  1  0.34375000  0.05682000  0.50568000  1
  Si  Si6277  1  0.34375000  0.05682000  0.63068000  1
  Si  Si6278  1  0.34375000  0.05682000  0.75568000  1
  Si  Si6279  1  0.34375000  0.05682000  0.88068000  1
  Si  Si6280  1  0.34375000  0.18182000  0.00568000  1
  Si  Si6281  1  0.34375000  0.18182000  0.13068000  1
  Si  Si6282  1  0.34375000  0.18182000  0.25568000  1
  Si  Si6283  1  0.34375000  0.18182000  0.38068000  1
  Si  Si6284  1  0.34375000  0.18182000  0.50568000  1
  Si  Si6285  1  0.34375000  0.18182000  0.63068000  1
  Si  Si6286  1  0.34375000  0.18182000  0.75568000  1
  Si  Si6287  1  0.34375000  0.18182000  0.88068000  1
  Si  Si6288  1  0.34375000  0.30682000  0.00568000  1
  Si  Si6289  1  0.34375000  0.30682000  0.13068000  1
  Si  Si6290  1  0.34375000  0.30682000  0.25568000  1
  Si  Si6291  1  0.34375000  0.30682000  0.38068000  1
  Si  Si6292  1  0.34375000  0.30682000  0.50568000  1
  Si  Si6293  1  0.34375000  0.30682000  0.63068000  1
  Si  Si6294  1  0.34375000  0.30682000  0.75568000  1
  Si  Si6295  1  0.34375000  0.30682000  0.88068000  1
  Si  Si6296  1  0.34375000  0.43182000  0.00568000  1
  Si  Si6297  1  0.34375000  0.43182000  0.13068000  1
  Si  Si6298  1  0.34375000  0.43182000  0.25568000  1
  Si  Si6299  1  0.34375000  0.43182000  0.38068000  1
  Si  Si6300  1  0.34375000  0.43182000  0.50568000  1
  Si  Si6301  1  0.34375000  0.43182000  0.63068000  1
  Si  Si6302  1  0.34375000  0.43182000  0.75568000  1
  Si  Si6303  1  0.34375000  0.43182000  0.88068000  1
  Si  Si6304  1  0.34375000  0.55682000  0.00568000  1
  Si  Si6305  1  0.34375000  0.55682000  0.13068000  1
  Si  Si6306  1  0.34375000  0.55682000  0.25568000  1
  Si  Si6307  1  0.34375000  0.55682000  0.38068000  1
  Si  Si6308  1  0.34375000  0.55682000  0.50568000  1
  Si  Si6309  1  0.34375000  0.55682000  0.63068000  1
  Si  Si6310  1  0.34375000  0.55682000  0.75568000  1
  Si  Si6311  1  0.34375000  0.55682000  0.88068000  1
  Si  Si6312  1  0.34375000  0.68182000  0.00568000  1
  Si  Si6313  1  0.34375000  0.68182000  0.13068000  1
  Si  Si6314  1  0.34375000  0.68182000  0.25568000  1
  Si  Si6315  1  0.34375000  0.68182000  0.38068000  1
  Si  Si6316  1  0.34375000  0.68182000  0.50568000  1
  Si  Si6317  1  0.34375000  0.68182000  0.63068000  1
  Si  Si6318  1  0.34375000  0.68182000  0.75568000  1
  Si  Si6319  1  0.34375000  0.68182000  0.88068000  1
  Si  Si6320  1  0.34375000  0.80682000  0.00568000  1
  Si  Si6321  1  0.34375000  0.80682000  0.13068000  1
  Si  Si6322  1  0.34375000  0.80682000  0.25568000  1
  Si  Si6323  1  0.34375000  0.80682000  0.38068000  1
  Si  Si6324  1  0.34375000  0.80682000  0.50568000  1
  Si  Si6325  1  0.34375000  0.80682000  0.63068000  1
  Si  Si6326  1  0.34375000  0.80682000  0.75568000  1
  Si  Si6327  1  0.34375000  0.80682000  0.88068000  1
  Si  Si6328  1  0.34375000  0.93182000  0.00568000  1
  Si  Si6329  1  0.34375000  0.93182000  0.13068000  1
  Si  Si6330  1  0.34375000  0.93182000  0.25568000  1
  Si  Si6331  1  0.34375000  0.93182000  0.38068000  1
  Si  Si6332  1  0.34375000  0.93182000  0.50568000  1
  Si  Si6333  1  0.34375000  0.93182000  0.63068000  1
  Si  Si6334  1  0.34375000  0.93182000  0.75568000  1
  Si  Si6335  1  0.34375000  0.93182000  0.88068000  1
  Si  Si6336  1  0.46875000  0.05682000  0.00568000  1
  Si  Si6337  1  0.46875000  0.05682000  0.13068000  1
  Si  Si6338  1  0.46875000  0.05682000  0.25568000  1
  Si  Si6339  1  0.46875000  0.05682000  0.38068000  1
  Si  Si6340  1  0.46875000  0.05682000  0.50568000  1
  Si  Si6341  1  0.46875000  0.05682000  0.63068000  1
  Si  Si6342  1  0.46875000  0.05682000  0.75568000  1
  Si  Si6343  1  0.46875000  0.05682000  0.88068000  1
  Si  Si6344  1  0.46875000  0.18182000  0.00568000  1
  Si  Si6345  1  0.46875000  0.18182000  0.13068000  1
  Si  Si6346  1  0.46875000  0.18182000  0.25568000  1
  Si  Si6347  1  0.46875000  0.18182000  0.38068000  1
  Si  Si6348  1  0.46875000  0.18182000  0.50568000  1
  Si  Si6349  1  0.46875000  0.18182000  0.63068000  1
  Si  Si6350  1  0.46875000  0.18182000  0.75568000  1
  Si  Si6351  1  0.46875000  0.18182000  0.88068000  1
  Si  Si6352  1  0.46875000  0.30682000  0.00568000  1
  Si  Si6353  1  0.46875000  0.30682000  0.13068000  1
  Si  Si6354  1  0.46875000  0.30682000  0.25568000  1
  Si  Si6355  1  0.46875000  0.30682000  0.38068000  1
  Si  Si6356  1  0.46875000  0.30682000  0.50568000  1
  Si  Si6357  1  0.46875000  0.30682000  0.63068000  1
  Si  Si6358  1  0.46875000  0.30682000  0.75568000  1
  Si  Si6359  1  0.46875000  0.30682000  0.88068000  1
  Si  Si6360  1  0.46875000  0.43182000  0.00568000  1
  Si  Si6361  1  0.46875000  0.43182000  0.13068000  1
  Si  Si6362  1  0.46875000  0.43182000  0.25568000  1
  Si  Si6363  1  0.46875000  0.43182000  0.38068000  1
  Si  Si6364  1  0.46875000  0.43182000  0.50568000  1
  Si  Si6365  1  0.46875000  0.43182000  0.63068000  1
  Si  Si6366  1  0.46875000  0.43182000  0.75568000  1
  Si  Si6367  1  0.46875000  0.43182000  0.88068000  1
  Si  Si6368  1  0.46875000  0.55682000  0.00568000  1
  Si  Si6369  1  0.46875000  0.55682000  0.13068000  1
  Si  Si6370  1  0.46875000  0.55682000  0.25568000  1
  Si  Si6371  1  0.46875000  0.55682000  0.38068000  1
  Si  Si6372  1  0.46875000  0.55682000  0.50568000  1
  Si  Si6373  1  0.46875000  0.55682000  0.63068000  1
  Si  Si6374  1  0.46875000  0.55682000  0.75568000  1
  Si  Si6375  1  0.46875000  0.55682000  0.88068000  1
  Si  Si6376  1  0.46875000  0.68182000  0.00568000  1
  Si  Si6377  1  0.46875000  0.68182000  0.13068000  1
  Si  Si6378  1  0.46875000  0.68182000  0.25568000  1
  Si  Si6379  1  0.46875000  0.68182000  0.38068000  1
  Si  Si6380  1  0.46875000  0.68182000  0.50568000  1
  Si  Si6381  1  0.46875000  0.68182000  0.63068000  1
  Si  Si6382  1  0.46875000  0.68182000  0.75568000  1
  Si  Si6383  1  0.46875000  0.68182000  0.88068000  1
  Si  Si6384  1  0.46875000  0.80682000  0.00568000  1
  Si  Si6385  1  0.46875000  0.80682000  0.13068000  1
  Si  Si6386  1  0.46875000  0.80682000  0.25568000  1
  Si  Si6387  1  0.46875000  0.80682000  0.38068000  1
  Si  Si6388  1  0.46875000  0.80682000  0.50568000  1
  Si  Si6389  1  0.46875000  0.80682000  0.63068000  1
  Si  Si6390  1  0.46875000  0.80682000  0.75568000  1
  Si  Si6391  1  0.46875000  0.80682000  0.88068000  1
  Si  Si6392  1  0.46875000  0.93182000  0.00568000  1
  Si  Si6393  1  0.46875000  0.93182000  0.13068000  1
  Si  Si6394  1  0.46875000  0.93182000  0.25568000  1
  Si  Si6395  1  0.46875000  0.93182000  0.38068000  1
  Si  Si6396  1  0.46875000  0.93182000  0.50568000  1
  Si  Si6397  1  0.46875000  0.93182000  0.63068000  1
  Si  Si6398  1  0.46875000  0.93182000  0.75568000  1
  Si  Si6399  1  0.46875000  0.93182000  0.88068000  1
  Si  Si6400  1  0.59375000  0.05682000  0.00568000  1
  Si  Si6401  1  0.59375000  0.05682000  0.13068000  1
  Si  Si6402  1  0.59375000  0.05682000  0.25568000  1
  Si  Si6403  1  0.59375000  0.05682000  0.38068000  1
  Si  Si6404  1  0.59375000  0.05682000  0.50568000  1
  Si  Si6405  1  0.59375000  0.05682000  0.63068000  1
  Si  Si6406  1  0.59375000  0.05682000  0.75568000  1
  Si  Si6407  1  0.59375000  0.05682000  0.88068000  1
  Si  Si6408  1  0.59375000  0.18182000  0.00568000  1
  Si  Si6409  1  0.59375000  0.18182000  0.13068000  1
  Si  Si6410  1  0.59375000  0.18182000  0.25568000  1
  Si  Si6411  1  0.59375000  0.18182000  0.38068000  1
  Si  Si6412  1  0.59375000  0.18182000  0.50568000  1
  Si  Si6413  1  0.59375000  0.18182000  0.63068000  1
  Si  Si6414  1  0.59375000  0.18182000  0.75568000  1
  Si  Si6415  1  0.59375000  0.18182000  0.88068000  1
  Si  Si6416  1  0.59375000  0.30682000  0.00568000  1
  Si  Si6417  1  0.59375000  0.30682000  0.13068000  1
  Si  Si6418  1  0.59375000  0.30682000  0.25568000  1
  Si  Si6419  1  0.59375000  0.30682000  0.38068000  1
  Si  Si6420  1  0.59375000  0.30682000  0.50568000  1
  Si  Si6421  1  0.59375000  0.30682000  0.63068000  1
  Si  Si6422  1  0.59375000  0.30682000  0.75568000  1
  Si  Si6423  1  0.59375000  0.30682000  0.88068000  1
  Si  Si6424  1  0.59375000  0.43182000  0.00568000  1
  Si  Si6425  1  0.59375000  0.43182000  0.13068000  1
  Si  Si6426  1  0.59375000  0.43182000  0.25568000  1
  Si  Si6427  1  0.59375000  0.43182000  0.38068000  1
  Si  Si6428  1  0.59375000  0.43182000  0.50568000  1
  Si  Si6429  1  0.59375000  0.43182000  0.63068000  1
  Si  Si6430  1  0.59375000  0.43182000  0.75568000  1
  Si  Si6431  1  0.59375000  0.43182000  0.88068000  1
  Si  Si6432  1  0.59375000  0.55682000  0.00568000  1
  Si  Si6433  1  0.59375000  0.55682000  0.13068000  1
  Si  Si6434  1  0.59375000  0.55682000  0.25568000  1
  Si  Si6435  1  0.59375000  0.55682000  0.38068000  1
  Si  Si6436  1  0.59375000  0.55682000  0.50568000  1
  Si  Si6437  1  0.59375000  0.55682000  0.63068000  1
  Si  Si6438  1  0.59375000  0.55682000  0.75568000  1
  Si  Si6439  1  0.59375000  0.55682000  0.88068000  1
  Si  Si6440  1  0.59375000  0.68182000  0.00568000  1
  Si  Si6441  1  0.59375000  0.68182000  0.13068000  1
  Si  Si6442  1  0.59375000  0.68182000  0.25568000  1
  Si  Si6443  1  0.59375000  0.68182000  0.38068000  1
  Si  Si6444  1  0.59375000  0.68182000  0.50568000  1
  Si  Si6445  1  0.59375000  0.68182000  0.63068000  1
  Si  Si6446  1  0.59375000  0.68182000  0.75568000  1
  Si  Si6447  1  0.59375000  0.68182000  0.88068000  1
  Si  Si6448  1  0.59375000  0.80682000  0.00568000  1
  Si  Si6449  1  0.59375000  0.80682000  0.13068000  1
  Si  Si6450  1  0.59375000  0.80682000  0.25568000  1
  Si  Si6451  1  0.59375000  0.80682000  0.38068000  1
  Si  Si6452  1  0.59375000  0.80682000  0.50568000  1
  Si  Si6453  1  0.59375000  0.80682000  0.63068000  1
  Si  Si6454  1  0.59375000  0.80682000  0.75568000  1
  Si  Si6455  1  0.59375000  0.80682000  0.88068000  1
  Si  Si6456  1  0.59375000  0.93182000  0.00568000  1
  Si  Si6457  1  0.59375000  0.93182000  0.13068000  1
  Si  Si6458  1  0.59375000  0.93182000  0.25568000  1
  Si  Si6459  1  0.59375000  0.93182000  0.38068000  1
  Si  Si6460  1  0.59375000  0.93182000  0.50568000  1
  Si  Si6461  1  0.59375000  0.93182000  0.63068000  1
  Si  Si6462  1  0.59375000  0.93182000  0.75568000  1
  Si  Si6463  1  0.59375000  0.93182000  0.88068000  1
  Si  Si6464  1  0.71875000  0.05682000  0.00568000  1
  Si  Si6465  1  0.71875000  0.05682000  0.13068000  1
  Si  Si6466  1  0.71875000  0.05682000  0.25568000  1
  Si  Si6467  1  0.71875000  0.05682000  0.38068000  1
  Si  Si6468  1  0.71875000  0.05682000  0.50568000  1
  Si  Si6469  1  0.71875000  0.05682000  0.63068000  1
  Si  Si6470  1  0.71875000  0.05682000  0.75568000  1
  Si  Si6471  1  0.71875000  0.05682000  0.88068000  1
  Si  Si6472  1  0.71875000  0.18182000  0.00568000  1
  Si  Si6473  1  0.71875000  0.18182000  0.13068000  1
  Si  Si6474  1  0.71875000  0.18182000  0.25568000  1
  Si  Si6475  1  0.71875000  0.18182000  0.38068000  1
  Si  Si6476  1  0.71875000  0.18182000  0.50568000  1
  Si  Si6477  1  0.71875000  0.18182000  0.63068000  1
  Si  Si6478  1  0.71875000  0.18182000  0.75568000  1
  Si  Si6479  1  0.71875000  0.18182000  0.88068000  1
  Si  Si6480  1  0.71875000  0.30682000  0.00568000  1
  Si  Si6481  1  0.71875000  0.30682000  0.13068000  1
  Si  Si6482  1  0.71875000  0.30682000  0.25568000  1
  Si  Si6483  1  0.71875000  0.30682000  0.38068000  1
  Si  Si6484  1  0.71875000  0.30682000  0.50568000  1
  Si  Si6485  1  0.71875000  0.30682000  0.63068000  1
  Si  Si6486  1  0.71875000  0.30682000  0.75568000  1
  Si  Si6487  1  0.71875000  0.30682000  0.88068000  1
  Si  Si6488  1  0.71875000  0.43182000  0.00568000  1
  Si  Si6489  1  0.71875000  0.43182000  0.13068000  1
  Si  Si6490  1  0.71875000  0.43182000  0.25568000  1
  Si  Si6491  1  0.71875000  0.43182000  0.38068000  1
  Si  Si6492  1  0.71875000  0.43182000  0.50568000  1
  Si  Si6493  1  0.71875000  0.43182000  0.63068000  1
  Si  Si6494  1  0.71875000  0.43182000  0.75568000  1
  Si  Si6495  1  0.71875000  0.43182000  0.88068000  1
  Si  Si6496  1  0.71875000  0.55682000  0.00568000  1
  Si  Si6497  1  0.71875000  0.55682000  0.13068000  1
  Si  Si6498  1  0.71875000  0.55682000  0.25568000  1
  Si  Si6499  1  0.71875000  0.55682000  0.38068000  1
  Si  Si6500  1  0.71875000  0.55682000  0.50568000  1
  Si  Si6501  1  0.71875000  0.55682000  0.63068000  1
  Si  Si6502  1  0.71875000  0.55682000  0.75568000  1
  Si  Si6503  1  0.71875000  0.55682000  0.88068000  1
  Si  Si6504  1  0.71875000  0.68182000  0.00568000  1
  Si  Si6505  1  0.71875000  0.68182000  0.13068000  1
  Si  Si6506  1  0.71875000  0.68182000  0.25568000  1
  Si  Si6507  1  0.71875000  0.68182000  0.38068000  1
  Si  Si6508  1  0.71875000  0.68182000  0.50568000  1
  Si  Si6509  1  0.71875000  0.68182000  0.63068000  1
  Si  Si6510  1  0.71875000  0.68182000  0.75568000  1
  Si  Si6511  1  0.71875000  0.68182000  0.88068000  1
  Si  Si6512  1  0.71875000  0.80682000  0.00568000  1
  Si  Si6513  1  0.71875000  0.80682000  0.13068000  1
  Si  Si6514  1  0.71875000  0.80682000  0.25568000  1
  Si  Si6515  1  0.71875000  0.80682000  0.38068000  1
  Si  Si6516  1  0.71875000  0.80682000  0.50568000  1
  Si  Si6517  1  0.71875000  0.80682000  0.63068000  1
  Si  Si6518  1  0.71875000  0.80682000  0.75568000  1
  Si  Si6519  1  0.71875000  0.80682000  0.88068000  1
  Si  Si6520  1  0.71875000  0.93182000  0.00568000  1
  Si  Si6521  1  0.71875000  0.93182000  0.13068000  1
  Si  Si6522  1  0.71875000  0.93182000  0.25568000  1
  Si  Si6523  1  0.71875000  0.93182000  0.38068000  1
  Si  Si6524  1  0.71875000  0.93182000  0.50568000  1
  Si  Si6525  1  0.71875000  0.93182000  0.63068000  1
  Si  Si6526  1  0.71875000  0.93182000  0.75568000  1
  Si  Si6527  1  0.71875000  0.93182000  0.88068000  1
  Si  Si6528  1  0.84375000  0.05682000  0.00568000  1
  Si  Si6529  1  0.84375000  0.05682000  0.13068000  1
  Si  Si6530  1  0.84375000  0.05682000  0.25568000  1
  Si  Si6531  1  0.84375000  0.05682000  0.38068000  1
  Si  Si6532  1  0.84375000  0.05682000  0.50568000  1
  Si  Si6533  1  0.84375000  0.05682000  0.63068000  1
  Si  Si6534  1  0.84375000  0.05682000  0.75568000  1
  Si  Si6535  1  0.84375000  0.05682000  0.88068000  1
  Si  Si6536  1  0.84375000  0.18182000  0.00568000  1
  Si  Si6537  1  0.84375000  0.18182000  0.13068000  1
  Si  Si6538  1  0.84375000  0.18182000  0.25568000  1
  Si  Si6539  1  0.84375000  0.18182000  0.38068000  1
  Si  Si6540  1  0.84375000  0.18182000  0.50568000  1
  Si  Si6541  1  0.84375000  0.18182000  0.63068000  1
  Si  Si6542  1  0.84375000  0.18182000  0.75568000  1
  Si  Si6543  1  0.84375000  0.18182000  0.88068000  1
  Si  Si6544  1  0.84375000  0.30682000  0.00568000  1
  Si  Si6545  1  0.84375000  0.30682000  0.13068000  1
  Si  Si6546  1  0.84375000  0.30682000  0.25568000  1
  Si  Si6547  1  0.84375000  0.30682000  0.38068000  1
  Si  Si6548  1  0.84375000  0.30682000  0.50568000  1
  Si  Si6549  1  0.84375000  0.30682000  0.63068000  1
  Si  Si6550  1  0.84375000  0.30682000  0.75568000  1
  Si  Si6551  1  0.84375000  0.30682000  0.88068000  1
  Si  Si6552  1  0.84375000  0.43182000  0.00568000  1
  Si  Si6553  1  0.84375000  0.43182000  0.13068000  1
  Si  Si6554  1  0.84375000  0.43182000  0.25568000  1
  Si  Si6555  1  0.84375000  0.43182000  0.38068000  1
  Si  Si6556  1  0.84375000  0.43182000  0.50568000  1
  Si  Si6557  1  0.84375000  0.43182000  0.63068000  1
  Si  Si6558  1  0.84375000  0.43182000  0.75568000  1
  Si  Si6559  1  0.84375000  0.43182000  0.88068000  1
  Si  Si6560  1  0.84375000  0.55682000  0.00568000  1
  Si  Si6561  1  0.84375000  0.55682000  0.13068000  1
  Si  Si6562  1  0.84375000  0.55682000  0.25568000  1
  Si  Si6563  1  0.84375000  0.55682000  0.38068000  1
  Si  Si6564  1  0.84375000  0.55682000  0.50568000  1
  Si  Si6565  1  0.84375000  0.55682000  0.63068000  1
  Si  Si6566  1  0.84375000  0.55682000  0.75568000  1
  Si  Si6567  1  0.84375000  0.55682000  0.88068000  1
  Si  Si6568  1  0.84375000  0.68182000  0.00568000  1
  Si  Si6569  1  0.84375000  0.68182000  0.13068000  1
  Si  Si6570  1  0.84375000  0.68182000  0.25568000  1
  Si  Si6571  1  0.84375000  0.68182000  0.38068000  1
  Si  Si6572  1  0.84375000  0.68182000  0.50568000  1
  Si  Si6573  1  0.84375000  0.68182000  0.63068000  1
  Si  Si6574  1  0.84375000  0.68182000  0.75568000  1
  Si  Si6575  1  0.84375000  0.68182000  0.88068000  1
  Si  Si6576  1  0.84375000  0.80682000  0.00568000  1
  Si  Si6577  1  0.84375000  0.80682000  0.13068000  1
  Si  Si6578  1  0.84375000  0.80682000  0.25568000  1
  Si  Si6579  1  0.84375000  0.80682000  0.38068000  1
  Si  Si6580  1  0.84375000  0.80682000  0.50568000  1
  Si  Si6581  1  0.84375000  0.80682000  0.63068000  1
  Si  Si6582  1  0.84375000  0.80682000  0.75568000  1
  Si  Si6583  1  0.84375000  0.80682000  0.88068000  1
  Si  Si6584  1  0.84375000  0.93182000  0.00568000  1
  Si  Si6585  1  0.84375000  0.93182000  0.13068000  1
  Si  Si6586  1  0.84375000  0.93182000  0.25568000  1
  Si  Si6587  1  0.84375000  0.93182000  0.38068000  1
  Si  Si6588  1  0.84375000  0.93182000  0.50568000  1
  Si  Si6589  1  0.84375000  0.93182000  0.63068000  1
  Si  Si6590  1  0.84375000  0.93182000  0.75568000  1
  Si  Si6591  1  0.84375000  0.93182000  0.88068000  1
  Si  Si6592  1  0.96875000  0.05682000  0.00568000  1
  Si  Si6593  1  0.96875000  0.05682000  0.13068000  1
  Si  Si6594  1  0.96875000  0.05682000  0.25568000  1
  Si  Si6595  1  0.96875000  0.05682000  0.38068000  1
  Si  Si6596  1  0.96875000  0.05682000  0.50568000  1
  Si  Si6597  1  0.96875000  0.05682000  0.63068000  1
  Si  Si6598  1  0.96875000  0.05682000  0.75568000  1
  Si  Si6599  1  0.96875000  0.05682000  0.88068000  1
  Si  Si6600  1  0.96875000  0.18182000  0.00568000  1
  Si  Si6601  1  0.96875000  0.18182000  0.13068000  1
  Si  Si6602  1  0.96875000  0.18182000  0.25568000  1
  Si  Si6603  1  0.96875000  0.18182000  0.38068000  1
  Si  Si6604  1  0.96875000  0.18182000  0.50568000  1
  Si  Si6605  1  0.96875000  0.18182000  0.63068000  1
  Si  Si6606  1  0.96875000  0.18182000  0.75568000  1
  Si  Si6607  1  0.96875000  0.18182000  0.88068000  1
  Si  Si6608  1  0.96875000  0.30682000  0.00568000  1
  Si  Si6609  1  0.96875000  0.30682000  0.13068000  1
  Si  Si6610  1  0.96875000  0.30682000  0.25568000  1
  Si  Si6611  1  0.96875000  0.30682000  0.38068000  1
  Si  Si6612  1  0.96875000  0.30682000  0.50568000  1
  Si  Si6613  1  0.96875000  0.30682000  0.63068000  1
  Si  Si6614  1  0.96875000  0.30682000  0.75568000  1
  Si  Si6615  1  0.96875000  0.30682000  0.88068000  1
  Si  Si6616  1  0.96875000  0.43182000  0.00568000  1
  Si  Si6617  1  0.96875000  0.43182000  0.13068000  1
  Si  Si6618  1  0.96875000  0.43182000  0.25568000  1
  Si  Si6619  1  0.96875000  0.43182000  0.38068000  1
  Si  Si6620  1  0.96875000  0.43182000  0.50568000  1
  Si  Si6621  1  0.96875000  0.43182000  0.63068000  1
  Si  Si6622  1  0.96875000  0.43182000  0.75568000  1
  Si  Si6623  1  0.96875000  0.43182000  0.88068000  1
  Si  Si6624  1  0.96875000  0.55682000  0.00568000  1
  Si  Si6625  1  0.96875000  0.55682000  0.13068000  1
  Si  Si6626  1  0.96875000  0.55682000  0.25568000  1
  Si  Si6627  1  0.96875000  0.55682000  0.38068000  1
  Si  Si6628  1  0.96875000  0.55682000  0.50568000  1
  Si  Si6629  1  0.96875000  0.55682000  0.63068000  1
  Si  Si6630  1  0.96875000  0.55682000  0.75568000  1
  Si  Si6631  1  0.96875000  0.55682000  0.88068000  1
  Si  Si6632  1  0.96875000  0.68182000  0.00568000  1
  Si  Si6633  1  0.96875000  0.68182000  0.13068000  1
  Si  Si6634  1  0.96875000  0.68182000  0.25568000  1
  Si  Si6635  1  0.96875000  0.68182000  0.38068000  1
  Si  Si6636  1  0.96875000  0.68182000  0.50568000  1
  Si  Si6637  1  0.96875000  0.68182000  0.63068000  1
  Si  Si6638  1  0.96875000  0.68182000  0.75568000  1
  Si  Si6639  1  0.96875000  0.68182000  0.88068000  1
  Si  Si6640  1  0.96875000  0.80682000  0.00568000  1
  Si  Si6641  1  0.96875000  0.80682000  0.13068000  1
  Si  Si6642  1  0.96875000  0.80682000  0.25568000  1
  Si  Si6643  1  0.96875000  0.80682000  0.38068000  1
  Si  Si6644  1  0.96875000  0.80682000  0.50568000  1
  Si  Si6645  1  0.96875000  0.80682000  0.63068000  1
  Si  Si6646  1  0.96875000  0.80682000  0.75568000  1
  Si  Si6647  1  0.96875000  0.80682000  0.88068000  1
  Si  Si6648  1  0.96875000  0.93182000  0.00568000  1
  Si  Si6649  1  0.96875000  0.93182000  0.13068000  1
  Si  Si6650  1  0.96875000  0.93182000  0.25568000  1
  Si  Si6651  1  0.96875000  0.93182000  0.38068000  1
  Si  Si6652  1  0.96875000  0.93182000  0.50568000  1
  Si  Si6653  1  0.96875000  0.93182000  0.63068000  1
  Si  Si6654  1  0.96875000  0.93182000  0.75568000  1
  Si  Si6655  1  0.96875000  0.93182000  0.88068000  1
  Si  Si6656  1  0.05682000  0.00568000  0.09375000  1
  Si  Si6657  1  0.05682000  0.00568000  0.21875000  1
  Si  Si6658  1  0.05682000  0.00568000  0.34375000  1
  Si  Si6659  1  0.05682000  0.00568000  0.46875000  1
  Si  Si6660  1  0.05682000  0.00568000  0.59375000  1
  Si  Si6661  1  0.05682000  0.00568000  0.71875000  1
  Si  Si6662  1  0.05682000  0.00568000  0.84375000  1
  Si  Si6663  1  0.05682000  0.00568000  0.96875000  1
  Si  Si6664  1  0.05682000  0.13068000  0.09375000  1
  Si  Si6665  1  0.05682000  0.13068000  0.21875000  1
  Si  Si6666  1  0.05682000  0.13068000  0.34375000  1
  Si  Si6667  1  0.05682000  0.13068000  0.46875000  1
  Si  Si6668  1  0.05682000  0.13068000  0.59375000  1
  Si  Si6669  1  0.05682000  0.13068000  0.71875000  1
  Si  Si6670  1  0.05682000  0.13068000  0.84375000  1
  Si  Si6671  1  0.05682000  0.13068000  0.96875000  1
  Si  Si6672  1  0.05682000  0.25568000  0.09375000  1
  Si  Si6673  1  0.05682000  0.25568000  0.21875000  1
  Si  Si6674  1  0.05682000  0.25568000  0.34375000  1
  Si  Si6675  1  0.05682000  0.25568000  0.46875000  1
  Si  Si6676  1  0.05682000  0.25568000  0.59375000  1
  Si  Si6677  1  0.05682000  0.25568000  0.71875000  1
  Si  Si6678  1  0.05682000  0.25568000  0.84375000  1
  Si  Si6679  1  0.05682000  0.25568000  0.96875000  1
  Si  Si6680  1  0.05682000  0.38068000  0.09375000  1
  Si  Si6681  1  0.05682000  0.38068000  0.21875000  1
  Si  Si6682  1  0.05682000  0.38068000  0.34375000  1
  Si  Si6683  1  0.05682000  0.38068000  0.46875000  1
  Si  Si6684  1  0.05682000  0.38068000  0.59375000  1
  Si  Si6685  1  0.05682000  0.38068000  0.71875000  1
  Si  Si6686  1  0.05682000  0.38068000  0.84375000  1
  Si  Si6687  1  0.05682000  0.38068000  0.96875000  1
  Si  Si6688  1  0.05682000  0.50568000  0.09375000  1
  Si  Si6689  1  0.05682000  0.50568000  0.21875000  1
  Si  Si6690  1  0.05682000  0.50568000  0.34375000  1
  Si  Si6691  1  0.05682000  0.50568000  0.46875000  1
  Si  Si6692  1  0.05682000  0.50568000  0.59375000  1
  Si  Si6693  1  0.05682000  0.50568000  0.71875000  1
  Si  Si6694  1  0.05682000  0.50568000  0.84375000  1
  Si  Si6695  1  0.05682000  0.50568000  0.96875000  1
  Si  Si6696  1  0.05682000  0.63068000  0.09375000  1
  Si  Si6697  1  0.05682000  0.63068000  0.21875000  1
  Si  Si6698  1  0.05682000  0.63068000  0.34375000  1
  Si  Si6699  1  0.05682000  0.63068000  0.46875000  1
  Si  Si6700  1  0.05682000  0.63068000  0.59375000  1
  Si  Si6701  1  0.05682000  0.63068000  0.71875000  1
  Si  Si6702  1  0.05682000  0.63068000  0.84375000  1
  Si  Si6703  1  0.05682000  0.63068000  0.96875000  1
  Si  Si6704  1  0.05682000  0.75568000  0.09375000  1
  Si  Si6705  1  0.05682000  0.75568000  0.21875000  1
  Si  Si6706  1  0.05682000  0.75568000  0.34375000  1
  Si  Si6707  1  0.05682000  0.75568000  0.46875000  1
  Si  Si6708  1  0.05682000  0.75568000  0.59375000  1
  Si  Si6709  1  0.05682000  0.75568000  0.71875000  1
  Si  Si6710  1  0.05682000  0.75568000  0.84375000  1
  Si  Si6711  1  0.05682000  0.75568000  0.96875000  1
  Si  Si6712  1  0.05682000  0.88068000  0.09375000  1
  Si  Si6713  1  0.05682000  0.88068000  0.21875000  1
  Si  Si6714  1  0.05682000  0.88068000  0.34375000  1
  Si  Si6715  1  0.05682000  0.88068000  0.46875000  1
  Si  Si6716  1  0.05682000  0.88068000  0.59375000  1
  Si  Si6717  1  0.05682000  0.88068000  0.71875000  1
  Si  Si6718  1  0.05682000  0.88068000  0.84375000  1
  Si  Si6719  1  0.05682000  0.88068000  0.96875000  1
  Si  Si6720  1  0.18182000  0.00568000  0.09375000  1
  Si  Si6721  1  0.18182000  0.00568000  0.21875000  1
  Si  Si6722  1  0.18182000  0.00568000  0.34375000  1
  Si  Si6723  1  0.18182000  0.00568000  0.46875000  1
  Si  Si6724  1  0.18182000  0.00568000  0.59375000  1
  Si  Si6725  1  0.18182000  0.00568000  0.71875000  1
  Si  Si6726  1  0.18182000  0.00568000  0.84375000  1
  Si  Si6727  1  0.18182000  0.00568000  0.96875000  1
  Si  Si6728  1  0.18182000  0.13068000  0.09375000  1
  Si  Si6729  1  0.18182000  0.13068000  0.21875000  1
  Si  Si6730  1  0.18182000  0.13068000  0.34375000  1
  Si  Si6731  1  0.18182000  0.13068000  0.46875000  1
  Si  Si6732  1  0.18182000  0.13068000  0.59375000  1
  Si  Si6733  1  0.18182000  0.13068000  0.71875000  1
  Si  Si6734  1  0.18182000  0.13068000  0.84375000  1
  Si  Si6735  1  0.18182000  0.13068000  0.96875000  1
  Si  Si6736  1  0.18182000  0.25568000  0.09375000  1
  Si  Si6737  1  0.18182000  0.25568000  0.21875000  1
  Si  Si6738  1  0.18182000  0.25568000  0.34375000  1
  Si  Si6739  1  0.18182000  0.25568000  0.46875000  1
  Si  Si6740  1  0.18182000  0.25568000  0.59375000  1
  Si  Si6741  1  0.18182000  0.25568000  0.71875000  1
  Si  Si6742  1  0.18182000  0.25568000  0.84375000  1
  Si  Si6743  1  0.18182000  0.25568000  0.96875000  1
  Si  Si6744  1  0.18182000  0.38068000  0.09375000  1
  Si  Si6745  1  0.18182000  0.38068000  0.21875000  1
  Si  Si6746  1  0.18182000  0.38068000  0.34375000  1
  Si  Si6747  1  0.18182000  0.38068000  0.46875000  1
  Si  Si6748  1  0.18182000  0.38068000  0.59375000  1
  Si  Si6749  1  0.18182000  0.38068000  0.71875000  1
  Si  Si6750  1  0.18182000  0.38068000  0.84375000  1
  Si  Si6751  1  0.18182000  0.38068000  0.96875000  1
  Si  Si6752  1  0.18182000  0.50568000  0.09375000  1
  Si  Si6753  1  0.18182000  0.50568000  0.21875000  1
  Si  Si6754  1  0.18182000  0.50568000  0.34375000  1
  Si  Si6755  1  0.18182000  0.50568000  0.46875000  1
  Si  Si6756  1  0.18182000  0.50568000  0.59375000  1
  Si  Si6757  1  0.18182000  0.50568000  0.71875000  1
  Si  Si6758  1  0.18182000  0.50568000  0.84375000  1
  Si  Si6759  1  0.18182000  0.50568000  0.96875000  1
  Si  Si6760  1  0.18182000  0.63068000  0.09375000  1
  Si  Si6761  1  0.18182000  0.63068000  0.21875000  1
  Si  Si6762  1  0.18182000  0.63068000  0.34375000  1
  Si  Si6763  1  0.18182000  0.63068000  0.46875000  1
  Si  Si6764  1  0.18182000  0.63068000  0.59375000  1
  Si  Si6765  1  0.18182000  0.63068000  0.71875000  1
  Si  Si6766  1  0.18182000  0.63068000  0.84375000  1
  Si  Si6767  1  0.18182000  0.63068000  0.96875000  1
  Si  Si6768  1  0.18182000  0.75568000  0.09375000  1
  Si  Si6769  1  0.18182000  0.75568000  0.21875000  1
  Si  Si6770  1  0.18182000  0.75568000  0.34375000  1
  Si  Si6771  1  0.18182000  0.75568000  0.46875000  1
  Si  Si6772  1  0.18182000  0.75568000  0.59375000  1
  Si  Si6773  1  0.18182000  0.75568000  0.71875000  1
  Si  Si6774  1  0.18182000  0.75568000  0.84375000  1
  Si  Si6775  1  0.18182000  0.75568000  0.96875000  1
  Si  Si6776  1  0.18182000  0.88068000  0.09375000  1
  Si  Si6777  1  0.18182000  0.88068000  0.21875000  1
  Si  Si6778  1  0.18182000  0.88068000  0.34375000  1
  Si  Si6779  1  0.18182000  0.88068000  0.46875000  1
  Si  Si6780  1  0.18182000  0.88068000  0.59375000  1
  Si  Si6781  1  0.18182000  0.88068000  0.71875000  1
  Si  Si6782  1  0.18182000  0.88068000  0.84375000  1
  Si  Si6783  1  0.18182000  0.88068000  0.96875000  1
  Si  Si6784  1  0.30682000  0.00568000  0.09375000  1
  Si  Si6785  1  0.30682000  0.00568000  0.21875000  1
  Si  Si6786  1  0.30682000  0.00568000  0.34375000  1
  Si  Si6787  1  0.30682000  0.00568000  0.46875000  1
  Si  Si6788  1  0.30682000  0.00568000  0.59375000  1
  Si  Si6789  1  0.30682000  0.00568000  0.71875000  1
  Si  Si6790  1  0.30682000  0.00568000  0.84375000  1
  Si  Si6791  1  0.30682000  0.00568000  0.96875000  1
  Si  Si6792  1  0.30682000  0.13068000  0.09375000  1
  Si  Si6793  1  0.30682000  0.13068000  0.21875000  1
  Si  Si6794  1  0.30682000  0.13068000  0.34375000  1
  Si  Si6795  1  0.30682000  0.13068000  0.46875000  1
  Si  Si6796  1  0.30682000  0.13068000  0.59375000  1
  Si  Si6797  1  0.30682000  0.13068000  0.71875000  1
  Si  Si6798  1  0.30682000  0.13068000  0.84375000  1
  Si  Si6799  1  0.30682000  0.13068000  0.96875000  1
  Si  Si6800  1  0.30682000  0.25568000  0.09375000  1
  Si  Si6801  1  0.30682000  0.25568000  0.21875000  1
  Si  Si6802  1  0.30682000  0.25568000  0.34375000  1
  Si  Si6803  1  0.30682000  0.25568000  0.46875000  1
  Si  Si6804  1  0.30682000  0.25568000  0.59375000  1
  Si  Si6805  1  0.30682000  0.25568000  0.71875000  1
  Si  Si6806  1  0.30682000  0.25568000  0.84375000  1
  Si  Si6807  1  0.30682000  0.25568000  0.96875000  1
  Si  Si6808  1  0.30682000  0.38068000  0.09375000  1
  Si  Si6809  1  0.30682000  0.38068000  0.21875000  1
  Si  Si6810  1  0.30682000  0.38068000  0.34375000  1
  Si  Si6811  1  0.30682000  0.38068000  0.46875000  1
  Si  Si6812  1  0.30682000  0.38068000  0.59375000  1
  Si  Si6813  1  0.30682000  0.38068000  0.71875000  1
  Si  Si6814  1  0.30682000  0.38068000  0.84375000  1
  Si  Si6815  1  0.30682000  0.38068000  0.96875000  1
  Si  Si6816  1  0.30682000  0.50568000  0.09375000  1
  Si  Si6817  1  0.30682000  0.50568000  0.21875000  1
  Si  Si6818  1  0.30682000  0.50568000  0.34375000  1
  Si  Si6819  1  0.30682000  0.50568000  0.46875000  1
  Si  Si6820  1  0.30682000  0.50568000  0.59375000  1
  Si  Si6821  1  0.30682000  0.50568000  0.71875000  1
  Si  Si6822  1  0.30682000  0.50568000  0.84375000  1
  Si  Si6823  1  0.30682000  0.50568000  0.96875000  1
  Si  Si6824  1  0.30682000  0.63068000  0.09375000  1
  Si  Si6825  1  0.30682000  0.63068000  0.21875000  1
  Si  Si6826  1  0.30682000  0.63068000  0.34375000  1
  Si  Si6827  1  0.30682000  0.63068000  0.46875000  1
  Si  Si6828  1  0.30682000  0.63068000  0.59375000  1
  Si  Si6829  1  0.30682000  0.63068000  0.71875000  1
  Si  Si6830  1  0.30682000  0.63068000  0.84375000  1
  Si  Si6831  1  0.30682000  0.63068000  0.96875000  1
  Si  Si6832  1  0.30682000  0.75568000  0.09375000  1
  Si  Si6833  1  0.30682000  0.75568000  0.21875000  1
  Si  Si6834  1  0.30682000  0.75568000  0.34375000  1
  Si  Si6835  1  0.30682000  0.75568000  0.46875000  1
  Si  Si6836  1  0.30682000  0.75568000  0.59375000  1
  Si  Si6837  1  0.30682000  0.75568000  0.71875000  1
  Si  Si6838  1  0.30682000  0.75568000  0.84375000  1
  Si  Si6839  1  0.30682000  0.75568000  0.96875000  1
  Si  Si6840  1  0.30682000  0.88068000  0.09375000  1
  Si  Si6841  1  0.30682000  0.88068000  0.21875000  1
  Si  Si6842  1  0.30682000  0.88068000  0.34375000  1
  Si  Si6843  1  0.30682000  0.88068000  0.46875000  1
  Si  Si6844  1  0.30682000  0.88068000  0.59375000  1
  Si  Si6845  1  0.30682000  0.88068000  0.71875000  1
  Si  Si6846  1  0.30682000  0.88068000  0.84375000  1
  Si  Si6847  1  0.30682000  0.88068000  0.96875000  1
  Si  Si6848  1  0.43182000  0.00568000  0.09375000  1
  Si  Si6849  1  0.43182000  0.00568000  0.21875000  1
  Si  Si6850  1  0.43182000  0.00568000  0.34375000  1
  Si  Si6851  1  0.43182000  0.00568000  0.46875000  1
  Si  Si6852  1  0.43182000  0.00568000  0.59375000  1
  Si  Si6853  1  0.43182000  0.00568000  0.71875000  1
  Si  Si6854  1  0.43182000  0.00568000  0.84375000  1
  Si  Si6855  1  0.43182000  0.00568000  0.96875000  1
  Si  Si6856  1  0.43182000  0.13068000  0.09375000  1
  Si  Si6857  1  0.43182000  0.13068000  0.21875000  1
  Si  Si6858  1  0.43182000  0.13068000  0.34375000  1
  Si  Si6859  1  0.43182000  0.13068000  0.46875000  1
  Si  Si6860  1  0.43182000  0.13068000  0.59375000  1
  Si  Si6861  1  0.43182000  0.13068000  0.71875000  1
  Si  Si6862  1  0.43182000  0.13068000  0.84375000  1
  Si  Si6863  1  0.43182000  0.13068000  0.96875000  1
  Si  Si6864  1  0.43182000  0.25568000  0.09375000  1
  Si  Si6865  1  0.43182000  0.25568000  0.21875000  1
  Si  Si6866  1  0.43182000  0.25568000  0.34375000  1
  Si  Si6867  1  0.43182000  0.25568000  0.46875000  1
  Si  Si6868  1  0.43182000  0.25568000  0.59375000  1
  Si  Si6869  1  0.43182000  0.25568000  0.71875000  1
  Si  Si6870  1  0.43182000  0.25568000  0.84375000  1
  Si  Si6871  1  0.43182000  0.25568000  0.96875000  1
  Si  Si6872  1  0.43182000  0.38068000  0.09375000  1
  Si  Si6873  1  0.43182000  0.38068000  0.21875000  1
  Si  Si6874  1  0.43182000  0.38068000  0.34375000  1
  Si  Si6875  1  0.43182000  0.38068000  0.46875000  1
  Si  Si6876  1  0.43182000  0.38068000  0.59375000  1
  Si  Si6877  1  0.43182000  0.38068000  0.71875000  1
  Si  Si6878  1  0.43182000  0.38068000  0.84375000  1
  Si  Si6879  1  0.43182000  0.38068000  0.96875000  1
  Si  Si6880  1  0.43182000  0.50568000  0.09375000  1
  Si  Si6881  1  0.43182000  0.50568000  0.21875000  1
  Si  Si6882  1  0.43182000  0.50568000  0.34375000  1
  Si  Si6883  1  0.43182000  0.50568000  0.46875000  1
  Si  Si6884  1  0.43182000  0.50568000  0.59375000  1
  Si  Si6885  1  0.43182000  0.50568000  0.71875000  1
  Si  Si6886  1  0.43182000  0.50568000  0.84375000  1
  Si  Si6887  1  0.43182000  0.50568000  0.96875000  1
  Si  Si6888  1  0.43182000  0.63068000  0.09375000  1
  Si  Si6889  1  0.43182000  0.63068000  0.21875000  1
  Si  Si6890  1  0.43182000  0.63068000  0.34375000  1
  Si  Si6891  1  0.43182000  0.63068000  0.46875000  1
  Si  Si6892  1  0.43182000  0.63068000  0.59375000  1
  Si  Si6893  1  0.43182000  0.63068000  0.71875000  1
  Si  Si6894  1  0.43182000  0.63068000  0.84375000  1
  Si  Si6895  1  0.43182000  0.63068000  0.96875000  1
  Si  Si6896  1  0.43182000  0.75568000  0.09375000  1
  Si  Si6897  1  0.43182000  0.75568000  0.21875000  1
  Si  Si6898  1  0.43182000  0.75568000  0.34375000  1
  Si  Si6899  1  0.43182000  0.75568000  0.46875000  1
  Si  Si6900  1  0.43182000  0.75568000  0.59375000  1
  Si  Si6901  1  0.43182000  0.75568000  0.71875000  1
  Si  Si6902  1  0.43182000  0.75568000  0.84375000  1
  Si  Si6903  1  0.43182000  0.75568000  0.96875000  1
  Si  Si6904  1  0.43182000  0.88068000  0.09375000  1
  Si  Si6905  1  0.43182000  0.88068000  0.21875000  1
  Si  Si6906  1  0.43182000  0.88068000  0.34375000  1
  Si  Si6907  1  0.43182000  0.88068000  0.46875000  1
  Si  Si6908  1  0.43182000  0.88068000  0.59375000  1
  Si  Si6909  1  0.43182000  0.88068000  0.71875000  1
  Si  Si6910  1  0.43182000  0.88068000  0.84375000  1
  Si  Si6911  1  0.43182000  0.88068000  0.96875000  1
  Si  Si6912  1  0.55682000  0.00568000  0.09375000  1
  Si  Si6913  1  0.55682000  0.00568000  0.21875000  1
  Si  Si6914  1  0.55682000  0.00568000  0.34375000  1
  Si  Si6915  1  0.55682000  0.00568000  0.46875000  1
  Si  Si6916  1  0.55682000  0.00568000  0.59375000  1
  Si  Si6917  1  0.55682000  0.00568000  0.71875000  1
  Si  Si6918  1  0.55682000  0.00568000  0.84375000  1
  Si  Si6919  1  0.55682000  0.00568000  0.96875000  1
  Si  Si6920  1  0.55682000  0.13068000  0.09375000  1
  Si  Si6921  1  0.55682000  0.13068000  0.21875000  1
  Si  Si6922  1  0.55682000  0.13068000  0.34375000  1
  Si  Si6923  1  0.55682000  0.13068000  0.46875000  1
  Si  Si6924  1  0.55682000  0.13068000  0.59375000  1
  Si  Si6925  1  0.55682000  0.13068000  0.71875000  1
  Si  Si6926  1  0.55682000  0.13068000  0.84375000  1
  Si  Si6927  1  0.55682000  0.13068000  0.96875000  1
  Si  Si6928  1  0.55682000  0.25568000  0.09375000  1
  Si  Si6929  1  0.55682000  0.25568000  0.21875000  1
  Si  Si6930  1  0.55682000  0.25568000  0.34375000  1
  Si  Si6931  1  0.55682000  0.25568000  0.46875000  1
  Si  Si6932  1  0.55682000  0.25568000  0.59375000  1
  Si  Si6933  1  0.55682000  0.25568000  0.71875000  1
  Si  Si6934  1  0.55682000  0.25568000  0.84375000  1
  Si  Si6935  1  0.55682000  0.25568000  0.96875000  1
  Si  Si6936  1  0.55682000  0.38068000  0.09375000  1
  Si  Si6937  1  0.55682000  0.38068000  0.21875000  1
  Si  Si6938  1  0.55682000  0.38068000  0.34375000  1
  Si  Si6939  1  0.55682000  0.38068000  0.46875000  1
  Si  Si6940  1  0.55682000  0.38068000  0.59375000  1
  Si  Si6941  1  0.55682000  0.38068000  0.71875000  1
  Si  Si6942  1  0.55682000  0.38068000  0.84375000  1
  Si  Si6943  1  0.55682000  0.38068000  0.96875000  1
  Si  Si6944  1  0.55682000  0.50568000  0.09375000  1
  Si  Si6945  1  0.55682000  0.50568000  0.21875000  1
  Si  Si6946  1  0.55682000  0.50568000  0.34375000  1
  Si  Si6947  1  0.55682000  0.50568000  0.46875000  1
  Si  Si6948  1  0.55682000  0.50568000  0.59375000  1
  Si  Si6949  1  0.55682000  0.50568000  0.71875000  1
  Si  Si6950  1  0.55682000  0.50568000  0.84375000  1
  Si  Si6951  1  0.55682000  0.50568000  0.96875000  1
  Si  Si6952  1  0.55682000  0.63068000  0.09375000  1
  Si  Si6953  1  0.55682000  0.63068000  0.21875000  1
  Si  Si6954  1  0.55682000  0.63068000  0.34375000  1
  Si  Si6955  1  0.55682000  0.63068000  0.46875000  1
  Si  Si6956  1  0.55682000  0.63068000  0.59375000  1
  Si  Si6957  1  0.55682000  0.63068000  0.71875000  1
  Si  Si6958  1  0.55682000  0.63068000  0.84375000  1
  Si  Si6959  1  0.55682000  0.63068000  0.96875000  1
  Si  Si6960  1  0.55682000  0.75568000  0.09375000  1
  Si  Si6961  1  0.55682000  0.75568000  0.21875000  1
  Si  Si6962  1  0.55682000  0.75568000  0.34375000  1
  Si  Si6963  1  0.55682000  0.75568000  0.46875000  1
  Si  Si6964  1  0.55682000  0.75568000  0.59375000  1
  Si  Si6965  1  0.55682000  0.75568000  0.71875000  1
  Si  Si6966  1  0.55682000  0.75568000  0.84375000  1
  Si  Si6967  1  0.55682000  0.75568000  0.96875000  1
  Si  Si6968  1  0.55682000  0.88068000  0.09375000  1
  Si  Si6969  1  0.55682000  0.88068000  0.21875000  1
  Si  Si6970  1  0.55682000  0.88068000  0.34375000  1
  Si  Si6971  1  0.55682000  0.88068000  0.46875000  1
  Si  Si6972  1  0.55682000  0.88068000  0.59375000  1
  Si  Si6973  1  0.55682000  0.88068000  0.71875000  1
  Si  Si6974  1  0.55682000  0.88068000  0.84375000  1
  Si  Si6975  1  0.55682000  0.88068000  0.96875000  1
  Si  Si6976  1  0.68182000  0.00568000  0.09375000  1
  Si  Si6977  1  0.68182000  0.00568000  0.21875000  1
  Si  Si6978  1  0.68182000  0.00568000  0.34375000  1
  Si  Si6979  1  0.68182000  0.00568000  0.46875000  1
  Si  Si6980  1  0.68182000  0.00568000  0.59375000  1
  Si  Si6981  1  0.68182000  0.00568000  0.71875000  1
  Si  Si6982  1  0.68182000  0.00568000  0.84375000  1
  Si  Si6983  1  0.68182000  0.00568000  0.96875000  1
  Si  Si6984  1  0.68182000  0.13068000  0.09375000  1
  Si  Si6985  1  0.68182000  0.13068000  0.21875000  1
  Si  Si6986  1  0.68182000  0.13068000  0.34375000  1
  Si  Si6987  1  0.68182000  0.13068000  0.46875000  1
  Si  Si6988  1  0.68182000  0.13068000  0.59375000  1
  Si  Si6989  1  0.68182000  0.13068000  0.71875000  1
  Si  Si6990  1  0.68182000  0.13068000  0.84375000  1
  Si  Si6991  1  0.68182000  0.13068000  0.96875000  1
  Si  Si6992  1  0.68182000  0.25568000  0.09375000  1
  Si  Si6993  1  0.68182000  0.25568000  0.21875000  1
  Si  Si6994  1  0.68182000  0.25568000  0.34375000  1
  Si  Si6995  1  0.68182000  0.25568000  0.46875000  1
  Si  Si6996  1  0.68182000  0.25568000  0.59375000  1
  Si  Si6997  1  0.68182000  0.25568000  0.71875000  1
  Si  Si6998  1  0.68182000  0.25568000  0.84375000  1
  Si  Si6999  1  0.68182000  0.25568000  0.96875000  1
  Si  Si7000  1  0.68182000  0.38068000  0.09375000  1
  Si  Si7001  1  0.68182000  0.38068000  0.21875000  1
  Si  Si7002  1  0.68182000  0.38068000  0.34375000  1
  Si  Si7003  1  0.68182000  0.38068000  0.46875000  1
  Si  Si7004  1  0.68182000  0.38068000  0.59375000  1
  Si  Si7005  1  0.68182000  0.38068000  0.71875000  1
  Si  Si7006  1  0.68182000  0.38068000  0.84375000  1
  Si  Si7007  1  0.68182000  0.38068000  0.96875000  1
  Si  Si7008  1  0.68182000  0.50568000  0.09375000  1
  Si  Si7009  1  0.68182000  0.50568000  0.21875000  1
  Si  Si7010  1  0.68182000  0.50568000  0.34375000  1
  Si  Si7011  1  0.68182000  0.50568000  0.46875000  1
  Si  Si7012  1  0.68182000  0.50568000  0.59375000  1
  Si  Si7013  1  0.68182000  0.50568000  0.71875000  1
  Si  Si7014  1  0.68182000  0.50568000  0.84375000  1
  Si  Si7015  1  0.68182000  0.50568000  0.96875000  1
  Si  Si7016  1  0.68182000  0.63068000  0.09375000  1
  Si  Si7017  1  0.68182000  0.63068000  0.21875000  1
  Si  Si7018  1  0.68182000  0.63068000  0.34375000  1
  Si  Si7019  1  0.68182000  0.63068000  0.46875000  1
  Si  Si7020  1  0.68182000  0.63068000  0.59375000  1
  Si  Si7021  1  0.68182000  0.63068000  0.71875000  1
  Si  Si7022  1  0.68182000  0.63068000  0.84375000  1
  Si  Si7023  1  0.68182000  0.63068000  0.96875000  1
  Si  Si7024  1  0.68182000  0.75568000  0.09375000  1
  Si  Si7025  1  0.68182000  0.75568000  0.21875000  1
  Si  Si7026  1  0.68182000  0.75568000  0.34375000  1
  Si  Si7027  1  0.68182000  0.75568000  0.46875000  1
  Si  Si7028  1  0.68182000  0.75568000  0.59375000  1
  Si  Si7029  1  0.68182000  0.75568000  0.71875000  1
  Si  Si7030  1  0.68182000  0.75568000  0.84375000  1
  Si  Si7031  1  0.68182000  0.75568000  0.96875000  1
  Si  Si7032  1  0.68182000  0.88068000  0.09375000  1
  Si  Si7033  1  0.68182000  0.88068000  0.21875000  1
  Si  Si7034  1  0.68182000  0.88068000  0.34375000  1
  Si  Si7035  1  0.68182000  0.88068000  0.46875000  1
  Si  Si7036  1  0.68182000  0.88068000  0.59375000  1
  Si  Si7037  1  0.68182000  0.88068000  0.71875000  1
  Si  Si7038  1  0.68182000  0.88068000  0.84375000  1
  Si  Si7039  1  0.68182000  0.88068000  0.96875000  1
  Si  Si7040  1  0.80682000  0.00568000  0.09375000  1
  Si  Si7041  1  0.80682000  0.00568000  0.21875000  1
  Si  Si7042  1  0.80682000  0.00568000  0.34375000  1
  Si  Si7043  1  0.80682000  0.00568000  0.46875000  1
  Si  Si7044  1  0.80682000  0.00568000  0.59375000  1
  Si  Si7045  1  0.80682000  0.00568000  0.71875000  1
  Si  Si7046  1  0.80682000  0.00568000  0.84375000  1
  Si  Si7047  1  0.80682000  0.00568000  0.96875000  1
  Si  Si7048  1  0.80682000  0.13068000  0.09375000  1
  Si  Si7049  1  0.80682000  0.13068000  0.21875000  1
  Si  Si7050  1  0.80682000  0.13068000  0.34375000  1
  Si  Si7051  1  0.80682000  0.13068000  0.46875000  1
  Si  Si7052  1  0.80682000  0.13068000  0.59375000  1
  Si  Si7053  1  0.80682000  0.13068000  0.71875000  1
  Si  Si7054  1  0.80682000  0.13068000  0.84375000  1
  Si  Si7055  1  0.80682000  0.13068000  0.96875000  1
  Si  Si7056  1  0.80682000  0.25568000  0.09375000  1
  Si  Si7057  1  0.80682000  0.25568000  0.21875000  1
  Si  Si7058  1  0.80682000  0.25568000  0.34375000  1
  Si  Si7059  1  0.80682000  0.25568000  0.46875000  1
  Si  Si7060  1  0.80682000  0.25568000  0.59375000  1
  Si  Si7061  1  0.80682000  0.25568000  0.71875000  1
  Si  Si7062  1  0.80682000  0.25568000  0.84375000  1
  Si  Si7063  1  0.80682000  0.25568000  0.96875000  1
  Si  Si7064  1  0.80682000  0.38068000  0.09375000  1
  Si  Si7065  1  0.80682000  0.38068000  0.21875000  1
  Si  Si7066  1  0.80682000  0.38068000  0.34375000  1
  Si  Si7067  1  0.80682000  0.38068000  0.46875000  1
  Si  Si7068  1  0.80682000  0.38068000  0.59375000  1
  Si  Si7069  1  0.80682000  0.38068000  0.71875000  1
  Si  Si7070  1  0.80682000  0.38068000  0.84375000  1
  Si  Si7071  1  0.80682000  0.38068000  0.96875000  1
  Si  Si7072  1  0.80682000  0.50568000  0.09375000  1
  Si  Si7073  1  0.80682000  0.50568000  0.21875000  1
  Si  Si7074  1  0.80682000  0.50568000  0.34375000  1
  Si  Si7075  1  0.80682000  0.50568000  0.46875000  1
  Si  Si7076  1  0.80682000  0.50568000  0.59375000  1
  Si  Si7077  1  0.80682000  0.50568000  0.71875000  1
  Si  Si7078  1  0.80682000  0.50568000  0.84375000  1
  Si  Si7079  1  0.80682000  0.50568000  0.96875000  1
  Si  Si7080  1  0.80682000  0.63068000  0.09375000  1
  Si  Si7081  1  0.80682000  0.63068000  0.21875000  1
  Si  Si7082  1  0.80682000  0.63068000  0.34375000  1
  Si  Si7083  1  0.80682000  0.63068000  0.46875000  1
  Si  Si7084  1  0.80682000  0.63068000  0.59375000  1
  Si  Si7085  1  0.80682000  0.63068000  0.71875000  1
  Si  Si7086  1  0.80682000  0.63068000  0.84375000  1
  Si  Si7087  1  0.80682000  0.63068000  0.96875000  1
  Si  Si7088  1  0.80682000  0.75568000  0.09375000  1
  Si  Si7089  1  0.80682000  0.75568000  0.21875000  1
  Si  Si7090  1  0.80682000  0.75568000  0.34375000  1
  Si  Si7091  1  0.80682000  0.75568000  0.46875000  1
  Si  Si7092  1  0.80682000  0.75568000  0.59375000  1
  Si  Si7093  1  0.80682000  0.75568000  0.71875000  1
  Si  Si7094  1  0.80682000  0.75568000  0.84375000  1
  Si  Si7095  1  0.80682000  0.75568000  0.96875000  1
  Si  Si7096  1  0.80682000  0.88068000  0.09375000  1
  Si  Si7097  1  0.80682000  0.88068000  0.21875000  1
  Si  Si7098  1  0.80682000  0.88068000  0.34375000  1
  Si  Si7099  1  0.80682000  0.88068000  0.46875000  1
  Si  Si7100  1  0.80682000  0.88068000  0.59375000  1
  Si  Si7101  1  0.80682000  0.88068000  0.71875000  1
  Si  Si7102  1  0.80682000  0.88068000  0.84375000  1
  Si  Si7103  1  0.80682000  0.88068000  0.96875000  1
  Si  Si7104  1  0.93182000  0.00568000  0.09375000  1
  Si  Si7105  1  0.93182000  0.00568000  0.21875000  1
  Si  Si7106  1  0.93182000  0.00568000  0.34375000  1
  Si  Si7107  1  0.93182000  0.00568000  0.46875000  1
  Si  Si7108  1  0.93182000  0.00568000  0.59375000  1
  Si  Si7109  1  0.93182000  0.00568000  0.71875000  1
  Si  Si7110  1  0.93182000  0.00568000  0.84375000  1
  Si  Si7111  1  0.93182000  0.00568000  0.96875000  1
  Si  Si7112  1  0.93182000  0.13068000  0.09375000  1
  Si  Si7113  1  0.93182000  0.13068000  0.21875000  1
  Si  Si7114  1  0.93182000  0.13068000  0.34375000  1
  Si  Si7115  1  0.93182000  0.13068000  0.46875000  1
  Si  Si7116  1  0.93182000  0.13068000  0.59375000  1
  Si  Si7117  1  0.93182000  0.13068000  0.71875000  1
  Si  Si7118  1  0.93182000  0.13068000  0.84375000  1
  Si  Si7119  1  0.93182000  0.13068000  0.96875000  1
  Si  Si7120  1  0.93182000  0.25568000  0.09375000  1
  Si  Si7121  1  0.93182000  0.25568000  0.21875000  1
  Si  Si7122  1  0.93182000  0.25568000  0.34375000  1
  Si  Si7123  1  0.93182000  0.25568000  0.46875000  1
  Si  Si7124  1  0.93182000  0.25568000  0.59375000  1
  Si  Si7125  1  0.93182000  0.25568000  0.71875000  1
  Si  Si7126  1  0.93182000  0.25568000  0.84375000  1
  Si  Si7127  1  0.93182000  0.25568000  0.96875000  1
  Si  Si7128  1  0.93182000  0.38068000  0.09375000  1
  Si  Si7129  1  0.93182000  0.38068000  0.21875000  1
  Si  Si7130  1  0.93182000  0.38068000  0.34375000  1
  Si  Si7131  1  0.93182000  0.38068000  0.46875000  1
  Si  Si7132  1  0.93182000  0.38068000  0.59375000  1
  Si  Si7133  1  0.93182000  0.38068000  0.71875000  1
  Si  Si7134  1  0.93182000  0.38068000  0.84375000  1
  Si  Si7135  1  0.93182000  0.38068000  0.96875000  1
  Si  Si7136  1  0.93182000  0.50568000  0.09375000  1
  Si  Si7137  1  0.93182000  0.50568000  0.21875000  1
  Si  Si7138  1  0.93182000  0.50568000  0.34375000  1
  Si  Si7139  1  0.93182000  0.50568000  0.46875000  1
  Si  Si7140  1  0.93182000  0.50568000  0.59375000  1
  Si  Si7141  1  0.93182000  0.50568000  0.71875000  1
  Si  Si7142  1  0.93182000  0.50568000  0.84375000  1
  Si  Si7143  1  0.93182000  0.50568000  0.96875000  1
  Si  Si7144  1  0.93182000  0.63068000  0.09375000  1
  Si  Si7145  1  0.93182000  0.63068000  0.21875000  1
  Si  Si7146  1  0.93182000  0.63068000  0.34375000  1
  Si  Si7147  1  0.93182000  0.63068000  0.46875000  1
  Si  Si7148  1  0.93182000  0.63068000  0.59375000  1
  Si  Si7149  1  0.93182000  0.63068000  0.71875000  1
  Si  Si7150  1  0.93182000  0.63068000  0.84375000  1
  Si  Si7151  1  0.93182000  0.63068000  0.96875000  1
  Si  Si7152  1  0.93182000  0.75568000  0.09375000  1
  Si  Si7153  1  0.93182000  0.75568000  0.21875000  1
  Si  Si7154  1  0.93182000  0.75568000  0.34375000  1
  Si  Si7155  1  0.93182000  0.75568000  0.46875000  1
  Si  Si7156  1  0.93182000  0.75568000  0.59375000  1
  Si  Si7157  1  0.93182000  0.75568000  0.71875000  1
  Si  Si7158  1  0.93182000  0.75568000  0.84375000  1
  Si  Si7159  1  0.93182000  0.75568000  0.96875000  1
  Si  Si7160  1  0.93182000  0.88068000  0.09375000  1
  Si  Si7161  1  0.93182000  0.88068000  0.21875000  1
  Si  Si7162  1  0.93182000  0.88068000  0.34375000  1
  Si  Si7163  1  0.93182000  0.88068000  0.46875000  1
  Si  Si7164  1  0.93182000  0.88068000  0.59375000  1
  Si  Si7165  1  0.93182000  0.88068000  0.71875000  1
  Si  Si7166  1  0.93182000  0.88068000  0.84375000  1
  Si  Si7167  1  0.93182000  0.88068000  0.96875000  1
